 .Sol file Watershed HRU:331 Subbasin:15 HRU:1 Luse:AGRL Soil: MBRW03 Slope: 0-9999 4/9/2015 12:00:00 AM ArcSWAT 2012.10_2.15
 Soil Name: MBRW03
 Soil Hydrologic Group: C
 Maximum rooting depth(m) : 1350.00
 Porosity fraction from which anions are excluded: 0.500
 Crack volume potential of soil: 0.500
 Texture 1                : GR-CL-GR-CL-BR
 Depth                [mm]:      230.00      970.00     1350.00
 Bulk Density Moist [g/cc]:        1.35        1.35        0.00
 Ave. AW Incl. Rock Frag  :        0.23        0.23        0.02
 Ksat. (est.)      [mm/hr]:       32.40       32.40       25.92
 Organic Carbon [weight %]:        1.16        0.44        0.44
 Clay           [weight %]:       30.00       30.00        0.00
 Silt           [weight %]:       36.50       36.50        0.00
 Sand           [weight %]:       33.50       33.50        0.00
 Rock Fragments   [vol. %]:       31.00       32.00        0.00
 Soil Albedo (Moist)      :        0.16        0.16        0.16
 Erosion K                :        0.32        0.32        0.00
 Salinity (EC, Form 5)    :        0.00        0.00        0.00
 Soil pH                  :        8.20        8.20        0.00
 Soil CACO3               :        0.00        0.00        0.00
                              
