 .Sol file Watershed HRU:967 Subbasin:42 HRU:8 Luse:FRSE Soil: MBRW07 Slope: 0-9999 4/9/2015 12:00:00 AM ArcSWAT 2012.10_2.15
 Soil Name: MBRW07
 Soil Hydrologic Group: D
 Maximum rooting depth(m) :  760.00
 Porosity fraction from which anions are excluded: 0.500
 Crack volume potential of soil: 0.500
 Texture 1                : GR-CL-GRV-CL-BR
 Depth                [mm]:      130.00      430.00      760.00
 Bulk Density Moist [g/cc]:        1.40        1.40        0.00
 Ave. AW Incl. Rock Frag  :        0.14        0.14        0.02
 Ksat. (est.)      [mm/hr]:       32.40       32.40       27.72
 Organic Carbon [weight %]:        3.48        2.61        0.00
 Clay           [weight %]:       25.00       25.00        0.00
 Silt           [weight %]:       39.20       39.20        0.00
 Sand           [weight %]:       35.80       35.80        0.00
 Rock Fragments   [vol. %]:       27.00       50.00        0.00
 Soil Albedo (Moist)      :        0.16        0.16        0.16
 Erosion K                :        0.28        0.32        0.00
 Salinity (EC, Form 5)    :        0.00        0.00        0.00
 Soil pH                  :        8.20        8.20        0.00
 Soil CACO3               :        0.00        0.00        0.00
                              
