 .Sol file Watershed HRU:1017 Subbasin:44 HRU:3 Luse:PAST Soil: MBRW01 Slope: 0-9999 4/9/2015 12:00:00 AM ArcSWAT 2012.10_2.15
 Soil Name: MBRW01
 Soil Hydrologic Group: B
 Maximum rooting depth(m) : 2030.00
 Porosity fraction from which anions are excluded: 0.500
 Crack volume potential of soil: 0.500
 Texture 1                : CL-CL
 Depth                [mm]:     1370.00     2030.00
 Bulk Density Moist [g/cc]:        1.30        1.30
 Ave. AW Incl. Rock Frag  :        0.32        0.26
 Ksat. (est.)      [mm/hr]:       32.40       32.40
 Organic Carbon [weight %]:        1.45        0.44
 Clay           [weight %]:       31.00       32.50
 Silt           [weight %]:       33.60       32.80
 Sand           [weight %]:       35.40       34.70
 Rock Fragments   [vol. %]:        1.00        3.00
 Soil Albedo (Moist)      :        0.16        0.16
 Erosion K                :        0.28        0.28
 Salinity (EC, Form 5)    :        1.00        1.00
 Soil pH                  :        8.20        8.20
 Soil CACO3               :        0.00        0.00
                              
