 .Sol file Watershed HRU:1160 Subbasin:49 HRU:25 Luse:URLD Soil: MBRW12 Slope: 0-9999 4/9/2015 12:00:00 AM ArcSWAT 2012.10_2.15
 Soil Name: MBRW12
 Soil Hydrologic Group: D
 Maximum rooting depth(m) :  610.00
 Porosity fraction from which anions are excluded: 0.500
 Crack volume potential of soil: 0.500
 Texture 1                : SIC-BR
 Depth                [mm]:      410.00      610.00
 Bulk Density Moist [g/cc]:        1.35        0.00
 Ave. AW Incl. Rock Frag  :        0.28        0.02
 Ksat. (est.)      [mm/hr]:        3.60       25.92
 Organic Carbon [weight %]:        1.16        0.00
 Clay           [weight %]:       45.00        0.00
 Silt           [weight %]:       47.80        0.00
 Sand           [weight %]:        7.20        0.00
 Rock Fragments   [vol. %]:        9.00        0.00
 Soil Albedo (Moist)      :        0.09        0.09
 Erosion K                :        0.32        0.00
 Salinity (EC, Form 5)    :        0.00        0.00
 Soil pH                  :        7.20        0.00
 Soil CACO3               :        0.00        0.00
                              
