 .Wgn file Subbasin: 54 STATION NAME:TXMCGREGOR 4/9/2015 12:00:00 AM ArcSWAT 2012.10_2.15
  LATITUDE =  31.43 LONGITUDE = -97.40
  ELEV [m] = 222.50
  RAIN_YRS =  10.00
 12.88 15.62 20.55 25.13 28.76 32.96 35.72 35.53 31.49 26.55 19.97 14.89
  0.15  2.19  7.06 12.68 16.69 20.58 22.54 22.06 18.80 12.79  7.07  2.20
  7.81  7.04  6.22  4.50  3.62  3.27  2.82  2.94  4.24  4.96  6.20  6.77
  6.10  5.10  5.52  4.79  3.73  2.73  1.77  2.04  3.96  4.81  5.32  5.49
  53.2  57.0  61.7  96.8 108.5  72.2  51.6  45.7  70.7  70.5  59.5  60.5
 11.70 11.40 13.70 20.60 18.80 17.30 20.60 17.80 20.60 22.90 15.20 16.30
  0.83  0.45  0.70  2.70  0.86  0.93  2.35  2.11  1.45  2.99  1.59  2.37
  0.13  0.14  0.14  0.17  0.18  0.12  0.08  0.09  0.10  0.10  0.11  0.12
  0.36  0.38  0.30  0.34  0.37  0.36  0.36  0.30  0.41  0.34  0.42  0.37
  5.23  5.34  5.17  6.14  6.89  4.74  3.44  3.53  4.35  4.08  4.78  4.96
 10.90 16.00 16.30 26.90 39.90 26.20 48.00 33.00 32.80 35.30 13.00 11.40
 10.56 13.49 17.85 20.28 23.46 27.15 25.77 24.80 21.03 16.89 12.78 10.31
  2.59  4.34  6.01 12.10 17.17 19.86 20.42 19.46 17.26 12.73  6.63  3.38
  4.87  5.00  5.32  5.36  4.81  4.69  4.37  4.02  3.79  4.03  4.50  4.62
