 .Sol file Watershed HRU:1271 Subbasin:52 HRU:34 Luse:FRSD Soil: MBRW08 Slope: 0-9999 4/9/2015 12:00:00 AM ArcSWAT 2012.10_2.15
 Soil Name: MBRW08
 Soil Hydrologic Group: D
 Maximum rooting depth(m) : 1830.00
 Porosity fraction from which anions are excluded: 0.500
 Crack volume potential of soil: 0.500
 Texture 1                : C-C-SIC
 Depth                [mm]:      510.00      940.00     1830.00
 Bulk Density Moist [g/cc]:        1.40        1.40        1.45
 Ave. AW Incl. Rock Frag  :        0.30        0.30        0.28
 Ksat. (est.)      [mm/hr]:        0.76        0.76        0.76
 Organic Carbon [weight %]:        1.45        1.16        0.32
 Clay           [weight %]:       50.00       50.00       50.00
 Silt           [weight %]:       27.90       27.90       44.70
 Sand           [weight %]:       22.10       22.10        5.30
 Rock Fragments   [vol. %]:        4.00        4.00        4.00
 Soil Albedo (Moist)      :        0.16        0.16        0.16
 Erosion K                :        0.32        0.32        0.32
 Salinity (EC, Form 5)    :        1.00        1.00        1.00
 Soil pH                  :        7.90        7.90        7.90
 Soil CACO3               :        0.00        0.00        0.00
                              
