 .Sol file Watershed HRU:1557 Subbasin:64 HRU:29 Luse:URLD Soil: MBRW13 Slope: 0-9999 4/9/2015 12:00:00 AM ArcSWAT 2012.10_2.15
 Soil Name: MBRW13
 Soil Hydrologic Group: D
 Maximum rooting depth(m) : 2030.00
 Porosity fraction from which anions are excluded: 0.500
 Crack volume potential of soil: 0.500
 Texture 1                : VAR
 Depth                [mm]:     2030.00
 Bulk Density Moist [g/cc]:        1.65
 Ave. AW Incl. Rock Frag  :        0.11
 Ksat. (est.)      [mm/hr]:      255.60
 Organic Carbon [weight %]:        0.17
 Clay           [weight %]:       29.70
 Silt           [weight %]:       57.70
 Sand           [weight %]:       12.60
 Rock Fragments   [vol. %]:       15.00
 Soil Albedo (Moist)      :        0.30
 Erosion K                :        0.43
 Salinity (EC, Form 5)    :        4.00
 Soil pH                  :        6.50
 Soil CACO3               :        0.00
                              
