 .Sol file Watershed HRU:1589 Subbasin:65 HRU:32 Luse:WETF Soil: MBRW11 Slope: 0-9999 4/9/2015 12:00:00 AM ArcSWAT 2012.10_2.15
 Soil Name: MBRW11
 Soil Hydrologic Group: D
 Maximum rooting depth(m) :  430.00
 Porosity fraction from which anions are excluded: 0.500
 Crack volume potential of soil: 0.500
 Texture 1                : CB-SIC-CBV-SIC-BR
 Depth                [mm]:      130.00      380.00      430.00
 Bulk Density Moist [g/cc]:        1.45        1.48        0.00
 Ave. AW Incl. Rock Frag  :        0.16        0.16        0.02
 Ksat. (est.)      [mm/hr]:        9.72        9.72       25.92
 Organic Carbon [weight %]:        3.77        3.77        0.00
 Clay           [weight %]:       50.00       50.00        0.00
 Silt           [weight %]:       44.70       44.70        0.00
 Sand           [weight %]:        5.30        5.30        0.00
 Rock Fragments   [vol. %]:       39.00       67.00        0.00
 Soil Albedo (Moist)      :        0.09        0.09        0.09
 Erosion K                :        0.32        0.32        0.00
 Salinity (EC, Form 5)    :        1.00        1.00        0.00
 Soil pH                  :        7.50        7.50        0.00
 Soil CACO3               :        0.00        0.00        0.00
                              
