 .Sol file Watershed HRU:1455 Subbasin:60 HRU:8 Luse:WETF Soil: MBRW05 Slope: 0-9999 4/9/2015 12:00:00 AM ArcSWAT 2012.10_2.15
 Soil Name: MBRW05
 Soil Hydrologic Group: C
 Maximum rooting depth(m) : 2030.00
 Porosity fraction from which anions are excluded: 0.500
 Crack volume potential of soil: 0.500
 Texture 1                : SIC-CL-CL
 Depth                [mm]:      100.00     1070.00     2030.00
 Bulk Density Moist [g/cc]:        1.35        1.35        1.43
 Ave. AW Incl. Rock Frag  :        0.30        0.30        0.30
 Ksat. (est.)      [mm/hr]:        9.72        9.72        9.72
 Organic Carbon [weight %]:        1.45        1.16        0.32
 Clay           [weight %]:       42.00       38.50       38.50
 Silt           [weight %]:       52.00       32.50       33.70
 Sand           [weight %]:        6.00       29.00       27.80
 Rock Fragments   [vol. %]:        9.00        9.00        8.00
 Soil Albedo (Moist)      :        0.16        0.16        0.16
 Erosion K                :        0.32        0.32        0.32
 Salinity (EC, Form 5)    :        0.00        0.00        0.00
 Soil pH                  :        8.20        8.20        8.20
 Soil CACO3               :        0.00        0.00        0.00
                              
