 .Sol file Watershed HRU:1635 Subbasin:67 HRU:15 Luse:PAST Soil: MBRW09 Slope: 0-9999 4/9/2015 12:00:00 AM ArcSWAT 2012.10_2.15
 Soil Name: MBRW09
 Soil Hydrologic Group: D
 Maximum rooting depth(m) : 1220.00
 Porosity fraction from which anions are excluded: 0.500
 Crack volume potential of soil: 0.500
 Texture 1                : C-SIC-BR
 Depth                [mm]:      130.00      970.00     1220.00
 Bulk Density Moist [g/cc]:        1.43        1.43        0.00
 Ave. AW Incl. Rock Frag  :        0.25        0.25        0.02
 Ksat. (est.)      [mm/hr]:        0.76        0.76       27.72
 Organic Carbon [weight %]:        1.16        1.16        0.00
 Clay           [weight %]:       50.00       50.00        0.00
 Silt           [weight %]:       27.90       44.70        0.00
 Sand           [weight %]:       22.10        5.30        0.00
 Rock Fragments   [vol. %]:       12.00       12.00        0.00
 Soil Albedo (Moist)      :        0.16        0.16        0.16
 Erosion K                :        0.32        0.32        0.00
 Salinity (EC, Form 5)    :        0.00        1.00        0.00
 Soil pH                  :        7.30        7.30        0.00
 Soil CACO3               :        0.00        0.00        0.00
                              
