# MODFLOW model 300 meter grid for SWAT model
# Basic Package file created on 2/4/2022 by ModelMuse version 4.3.0.0.
# Number of active cells = 710.
FREE CHTOCH PRINTTIME  # OPTIONS
INTERNAL 1 (FREE)        5 # IBOUND Upper Aquifer
     1     1     1     1     1     1     1     1     1     1
     1     1     1     1     1     1     1     1     1     1
     1     1     1     1     1     1     1     0     0     0
     0     0     0     0     0     0     0     0     0     0
     1     1     1     1     1     1     1     1     1     1
     1     1     1     1     1     1     1     1     1     1
     1     1     1     1     1     1     1     1     1     1
     1     1     0     0     0     0     0     0     0     0
     1     1     1     1     1     1     1     1     1     1
     1     1     1     1     1     1     1     1     1     1
     1     1     1     1     1     1     1     1     1     1
     1     1     1     0     0     0     0     0     0     0
     1     1     1     1     1     1     1     1     1     1
     1     1     1     1     1     1     1     1     1     1
     1     1     1     1     1     1     1     1     1     1
     1     1     1     1     0     0     0     0     0     0
     1     1     1     1     1     1     1     1     1     1
     1     1     1     1     1     1     1     1     1     1
     1     1     1     1     1     1     1     1     1     1
     1     1     1     1     1     1     0     0     0     0
     1     1     1     1     1     1     1     1     1     1
     1     1     1     1     1     1     1     1     1     1
     1     1     1     1     1     1     1     1     1     1
     1     1     1     1     1     1     1     0     0     0
     1     1     1     1     1     1     1     1     1     1
     1     1     1     1     1     1     1     1     1     1
     1     1     1     1     1     1     1     1     1     1
     1     1     1     1     1     1     1     1     0     0
     1     1     1     1     1     1     1     1     1     1
     1     1     1     1     1     1     1     1     1     1
     1     1     1     1     1     1     1     1     1     1
     1     1     1     1     1     1     1     1     1     0
     0     1     1     1     1     1     1     1     1     1
     1     1     1     1     1     1     1     1     1     1
     1     1     1     1     1     1     1     1     1     1
     1     1     1     1     1     1     1     1     1     1
     0     0     0     1     1     1     1     1     1     1
     1     1     1     1     1     1     1     1     1     1
     1     1     1     1     1     1     1     1     1     1
     1     1     1     1     1     1     1     1     1     1
     0     0     0     0     1     1     1     1     1     1
     1     1     1     1     1     1     1     1     1     1
     1     1     1     1     1     1     1     1     1     1
     1     1     1     1     1     1     1     1     1     1
     0     0     0     0     0     0     1     1     1     1
     1     1     1     1     1     1     1     1     1     1
     1     1     1     1     1     1     1     1     1     1
     1     1     1     1     1     1     1     1     1     1
     0     0     0     0     0     0     0     1     1     1
     1     1     1     1     1     1     1     1     1     1
     1     1     1     1     1     1     1     1     1     1
     1     1     1     1     1     1     1     1     1     1
     0     0     0     0     0     0     0     0     0     1
     1     1     1     1     1     1     1     1     1     1
     1     1     1     1     1     1     1     1     1     1
     1     1     1     1     1     1     1     1     1     1
     0     0     0     0     0     0     0     0     0     0
     1     1     1     1     1     1     1     1     1     1
     1     1     1     1     1     1     1     1     1     1
     1     1     1     1     1     1     1     1     1     1
     0     0     0     0     0     0     0     0     0     0
     0     1     1     1     1     1     1     1     1     1
     1     1     1     1     1     1     1     1     1     1
     1     1     1     1     1     1     1     1     1     1
     0     0     0     0     0     0     0     0     0     0
     0     0     0     1     1     1     1     1     1     1
     1     1     1     1     1     1     1     1     1     1
     1     1     1     1     1     1     1     1     1     1
     0     0     0     0     0     0     0     0     0     0
     0     0     0     1     1     1     1     1     1     1
     1     1     1     1     1     1     1     1     1     1
     1     1     1     1     1     1     1     1     1     1
     0     0     0     0     0     0     0     0     0     0
     0     0     0     0     1     1     1     1     1     1
     1     1     1     1     1     1     1     1     1     1
     1     1     1     1     1     1     1     1     1     1
     0     0     0     0     0     0     0     0     0     0
     0     0     0     0     0     0     1     1     1     1
     1     1     1     1     1     1     1     1     1     1
     1     1     1     1     1     1     1     1     1     1
     0     0     0     0     0     0     0     0     0     0
     0     0     0     0     0     0     0     1     1     1
     1     1     1     1     1     1     1     1     1     1
     1     1     1     1     1     1     1     1     1     1
     0     0     0     0     0     0     0     0     0     0
     0     0     0     0     0     0     0     0     0     1
     1     1     1     1     1     1     1     1     1     1
     1     1     1     1     1     1     1     1     1     0
     0     0     0     0     0     0     0     0     0     0
     0     0     0     0     0     0     0     0     0     0
     0     1     1     1     1     1     1     1     1     1
     1     1     1     1     1     1     1     1     1     0
 -2.000000000000E+020  # HNOFLO
INTERNAL 1.0 (FREE)       12 # STRT Upper Aquifer
  3.600397672562E+002   3.518369075191E+002   3.442343713406E+002   3.402811766579E+002   3.332253426749E+002   3.284190417258E+002   3.274680003554E+002   3.272094288732E+002   3.282451043792E+002   3.262297846480E+002 
  3.125983296144E+002   3.081138028831E+002   3.035886627849E+002   2.991710074936E+002   2.950089351830E+002   2.912505440270E+002   2.880439321994E+002   2.855371978740E+002   2.838784392247E+002   2.832157544253E+002 
  2.836972416497E+002   2.854709990717E+002   2.886851248651E+002   2.896779062715E+002   2.840492255717E+002   2.786104950978E+002   2.804197072099E+002   2.871747665597E+002   2.844545813409E+002   2.747668056614E+002 
  2.611177564688E+002   2.465137507109E+002   2.339611053354E+002   2.273319520396E+002   2.309330248497E+002   2.328552254770E+002   2.336768005658E+002   2.350157671086E+002   2.384901420982E+002   2.441008738274E+002 
  3.626410285664E+002   3.490063991385E+002   3.434201509443E+002   3.371803710048E+002   3.247602680316E+002   3.166505978849E+002   3.078432859993E+002   3.140015885896E+002   3.134492535949E+002   3.186113631274E+002 
  3.186325136477E+002   3.143543598714E+002   3.095756151408E+002   3.088486165884E+002   3.114096780692E+002   3.105694490912E+002   3.034415833068E+002   2.931661099229E+002   2.848246686242E+002   2.859736331688E+002 
  2.922483811197E+002   2.724298343488E+002   2.749682331695E+002   2.745547403383E+002   2.698640478438E+002   2.679298482515E+002   2.754089954403E+002   2.802521890833E+002   2.762290657723E+002   2.663459424550E+002 
  2.536091360791E+002   2.410249635922E+002   2.315997419421E+002   2.306389153140E+002   2.326564640723E+002   2.328266102184E+002   2.327673707452E+002   2.340967626452E+002   2.383905866759E+002   2.412211054817E+002 
  3.606461273793E+002   3.510748049249E+002   3.401882874283E+002   3.355361217119E+002   3.261507110502E+002   3.343643267484E+002   3.264031598698E+002   3.118814313557E+002   2.966341511299E+002   3.023980547151E+002 
  2.987094760315E+002   3.020481894486E+002   2.997216578394E+002   2.962909112536E+002   2.955306125188E+002   3.009464015162E+002   2.962092027959E+002   2.895232865200E+002   2.802354143884E+002   2.809969560998E+002 
  2.711679941060E+002   2.720624067562E+002   2.623485807542E+002   2.671560819712E+002   2.676027084353E+002   2.597728337520E+002   2.704745666479E+002   2.733152913854E+002   2.683972896233E+002   2.587268783094E+002 
  2.473103743912E+002   2.371540948164E+002   2.313044609137E+002   2.329488081272E+002   2.328121916725E+002   2.316994125248E+002   2.312284876768E+002   2.330174341211E+002   2.366289019905E+002   2.366855530186E+002 
  3.603083584787E+002   3.561099535982E+002   3.453658991221E+002   3.377316770617E+002   3.381652760713E+002   3.284739209418E+002   3.208729372949E+002   3.186564282027E+002   3.153465824135E+002   2.925598660861E+002 
  2.749728921082E+002   2.910815967671E+002   2.961305421990E+002   2.798623900965E+002   2.900229849306E+002   2.927743052587E+002   2.866143206928E+002   2.782133171864E+002   2.680569234745E+002   2.655085449560E+002 
  2.620070688003E+002   2.573485698627E+002   2.533703245706E+002   2.547415706704E+002   2.510528176531E+002   2.486528394424E+002   2.599030049549E+002   2.596460271516E+002   2.611095906565E+002   2.520599509870E+002 
  2.423718091676E+002   2.350514821461E+002   2.335731808689E+002   2.334744681548E+002   2.316528156742E+002   2.297262404199E+002   2.293127593843E+002   2.318844281916E+002   2.328255413000E+002   2.310013930587E+002 
  3.595896391689E+002   3.554708591847E+002   3.515412435475E+002   3.541840383338E+002   3.478655271510E+002   3.412580623052E+002   3.293508379630E+002   3.228725281053E+002   3.057430110432E+002   3.124961991463E+002 
  3.065458801011E+002   2.714095126079E+002   2.764988171399E+002   2.564007239735E+002   2.606485365062E+002   2.630364085605E+002   2.745261715723E+002   2.582120961191E+002   2.691501195620E+002   2.536695065194E+002 
  2.513599525962E+002   2.459995121400E+002   2.350177499790E+002   2.328644125011E+002   2.325067487555E+002   2.384235191537E+002   2.447268706894E+002   2.548923253723E+002   2.517639928442E+002   2.433306295763E+002 
  2.389437781709E+002   2.348674633437E+002   2.346543628924E+002   2.324685034206E+002   2.294309441015E+002   2.271597019276E+002   2.272727938917E+002   2.289575493630E+002   2.276627990853E+002   2.248454869110E+002 
  3.587251554125E+002   3.546482533405E+002   3.507586765402E+002   3.481400907851E+002   3.469259603180E+002   3.425194344225E+002   3.314017653516E+002   3.275665460129E+002   3.237174373575E+002   3.169179906988E+002 
  3.021167689904E+002   3.069344443734E+002   3.055419448436E+002   2.958952674088E+002   2.843552469624E+002   2.574609862020E+002   2.788410187446E+002   2.798739216567E+002   2.796087531532E+002   2.821529312505E+002 
  2.757129756812E+002   2.682248938565E+002   2.542730647617E+002   2.394620520852E+002   2.415583038329E+002   2.185440974937E+002   2.354433606251E+002   2.364009978505E+002   2.351808619319E+002   2.286664749572E+002 
  2.319799460413E+002   2.332930634050E+002   2.328326123831E+002   2.301835219485E+002   2.263991849780E+002   2.242524050719E+002   2.250634784182E+002   2.243242051118E+002   2.220191254233E+002   2.192008127435E+002 
  3.576755510214E+002   3.536386093847E+002   3.497888996107E+002   3.461264172858E+002   3.471437608919E+002   3.436595813312E+002   3.414625912393E+002   3.346679767783E+002   3.214320555913E+002   3.146040843393E+002 
  3.159051626714E+002   3.162651283338E+002   3.021472021199E+002   2.899367576478E+002   2.750899145403E+002   2.837027374645E+002   2.941186596340E+002   2.930664075520E+002   2.887816884396E+002   2.787661210497E+002 
  2.701363589520E+002   2.583655567968E+002   2.568019575175E+002   2.605294990225E+002   2.513079947334E+002   2.414844125315E+002   2.244916519934E+002   2.111801007102E+002   2.271554254854E+002   2.251187867371E+002 
  2.195307674395E+002   2.293914062410E+002   2.269784588139E+002   2.275098715312E+002   2.230514779911E+002   2.212569578766E+002   2.209856111384E+002   2.191927639356E+002   2.168866837415E+002   2.140684050211E+002 
  3.564388267751E+002   3.524417481928E+002   3.486318969811E+002   3.450092756230E+002   3.415739143843E+002   3.439552500446E+002   3.380552939421E+002   3.397422604629E+002   3.277116603371E+002   3.227915837892E+002 
  3.090369561053E+002   2.998072375961E+002   2.997784905147E+002   2.727697525082E+002   2.968057999851E+002   3.019982692209E+002   2.946305391357E+002   2.857699394003E+002   2.829282861064E+002   2.781764580192E+002 
  2.699565040930E+002   2.640630103330E+002   2.735356678525E+002   2.674103914426E+002   2.528121312465E+002   2.426667652886E+002   2.358370948887E+002   2.292362891972E+002   2.081075970759E+002   2.034692567082E+002 
  2.057147128466E+002   2.194653877043E+002   2.149528320182E+002   2.176778560377E+002   2.190964897780E+002   2.187388365014E+002   2.163664024479E+002   2.145725547395E+002   2.122665085048E+002   2.081516051995E+002 
  3.550148811600E+002   3.510576611506E+002   3.472876732624E+002   3.437049709104E+002   3.403101503117E+002   3.371098649934E+002   3.335418830150E+002   3.347545976100E+002   3.336587486723E+002   3.263389453026E+002 
  3.163708970826E+002   3.127675690620E+002   2.955514310807E+002   3.003825515179E+002   3.040374866285E+002   3.041311222926E+002   2.909864854084E+002   2.807385576240E+002   2.785841329398E+002   2.735602192848E+002 
  2.717054588693E+002   2.770419570497E+002   2.723471343207E+002   2.622176346456E+002   2.601161553125E+002   2.605954815328E+002   2.520130992405E+002   2.398308261660E+002   2.294038640449E+002   2.216193510395E+002 
  1.968373463192E+002   2.119685168403E+002   2.054210856908E+002   2.010461269995E+002   2.123796832205E+002   2.078293790956E+002   2.136160552185E+002   2.104646119885E+002   2.075125687655E+002   2.038130961881E+002 
  3.534037098752E+002   3.494863573680E+002   3.457563352337E+002   3.422146952166E+002   3.388731743145E+002   3.360087557073E+002   3.342839663454E+002   3.278985184854E+002   3.231189948375E+002   3.225371298208E+002 
  3.182525581593E+002   3.067459201434E+002   2.994174760586E+002   3.155376006264E+002   3.129200991395E+002   3.039116326689E+002   2.921384119256E+002   2.916982328823E+002   2.883170613696E+002   2.862608690524E+002 
  2.848792395958E+002   2.759333281267E+002   2.717153835155E+002   2.672247799033E+002   2.547545593419E+002   2.454195715762E+002   2.409921945456E+002   2.392280865363E+002   2.254354581991E+002   2.136146071293E+002 
  2.142151439178E+002   1.974188159423E+002   1.947003860307E+002   1.881177252345E+002   1.986922822074E+002   2.036683489244E+002   2.091832549342E+002   2.067190683809E+002   2.038607437147E+002   2.063622698314E+002 
  3.516053295440E+002   3.477280252562E+002   3.440399857406E+002   3.405619153722E+002   3.370966841178E+002   3.397556565752E+002   3.386689379714E+002   3.335637234037E+002   3.236582475360E+002   3.168497582382E+002 
  3.136304315637E+002   3.118830749006E+002   3.103114196197E+002   3.212373072570E+002   3.132440164234E+002   3.021203897363E+002   2.945102632187E+002   2.981890233449E+002   2.850189284751E+002   2.840114631199E+002 
  2.756528938576E+002   2.679563825606E+002   2.605470768634E+002   2.574384819972E+002   2.555302479914E+002   2.561333262868E+002   2.460467066973E+002   2.285644291743E+002   2.236310019010E+002   2.294439821598E+002 
  2.213571646933E+002   2.143365394285E+002   2.066375275031E+002   2.039165713091E+002   1.881120613724E+002   1.944020499017E+002   2.005554846984E+002   2.013269703806E+002   2.007777292127E+002   2.017219719906E+002 
  3.496200725570E+002   3.457863742927E+002   3.421800208935E+002   3.377608093099E+002   3.439835293155E+002   3.475372080888E+002   3.470723976377E+002   3.416063731217E+002   3.292502775115E+002   3.190783610800E+002 
  3.240295503864E+002   3.224359004574E+002   3.232106520866E+002   3.193068890322E+002   3.087091043279E+002   3.019768445367E+002   2.938031591988E+002   2.925962451587E+002   2.887889245619E+002   2.712739060906E+002 
  2.649949750729E+002   2.556250142642E+002   2.465744676585E+002   2.411545002797E+002   2.367818658925E+002   2.381771337563E+002   2.345592347865E+002   2.319699599894E+002   2.397705941930E+002   2.255308598084E+002 
  2.150319672523E+002   2.203632568437E+002   2.124963355661E+002   1.988376281782E+002   1.979160848662E+002   1.836435050732E+002   1.924999285873E+002   1.928842422225E+002   1.936438859140E+002   1.962347171925E+002 
  3.474544825319E+002   3.437309423353E+002   3.380042559719E+002   3.469675879696E+002   3.551616601893E+002   3.593372485473E+002   3.593317495850E+002   3.467215132514E+002   3.350204289285E+002   3.245056589857E+002 
  3.150301460495E+002   3.292009150164E+002   3.204031520514E+002   3.158140367402E+002   3.141116434236E+002   3.065615368079E+002   3.048516137273E+002   2.887070746561E+002   2.823520606411E+002   2.722675904267E+002 
  2.643292755815E+002   2.673624995410E+002   2.652303459221E+002   2.671677194225E+002   2.480775735985E+002   2.500801897174E+002   2.424517199280E+002   2.488475908432E+002   2.404088119655E+002   2.229963110953E+002 
  2.263555263310E+002   2.223051935667E+002   2.092976728441E+002   2.056627486621E+002   2.000270411976E+002   1.935880212106E+002   1.828315749076E+002   1.836787809369E+002   1.822182221703E+002   1.893377367539E+002 
  3.447559677110E+002   3.378188160423E+002   3.487078578940E+002   3.615422942728E+002   3.703582807277E+002   3.751339557061E+002   3.644981605128E+002   3.521177343130E+002   3.409743282956E+002   3.309143051382E+002 
  3.218037527802E+002   3.135253009030E+002   3.095976118952E+002   3.216566328168E+002   3.037695847577E+002   3.025976186382E+002   2.987058519851E+002   2.862883620905E+002   2.781269462113E+002   2.715992848214E+002 
  2.679729899349E+002   2.796707511145E+002   2.707887076242E+002   2.645833262469E+002   2.608444541506E+002   2.639932935837E+002   2.469397084341E+002   2.502202152990E+002   2.389985966904E+002   2.247577721400E+002 
  2.342027449148E+002   2.239762041272E+002   2.107654697947E+002   2.213098827140E+002   2.118450285203E+002   2.055144920050E+002   1.889523312489E+002   1.759113131427E+002   1.739706638959E+002   1.762328801350E+002 
  3.372021078039E+002   3.492045280202E+002   3.666791103395E+002   3.801354947954E+002   3.895704614526E+002   3.825860059475E+002   3.695087254146E+002   3.577214836706E+002   3.470637021004E+002   3.373956227553E+002 
  3.285949858589E+002   3.205541233004E+002   3.131773990176E+002   3.063789354221E+002   3.117699181885E+002   3.032419256234E+002   2.906135184697E+002   2.850592398033E+002   2.848355647751E+002   2.807942191912E+002 
  2.847645797747E+002   2.763627252472E+002   2.653647137064E+002   2.609672280972E+002   2.570797552002E+002   2.582815217025E+002   2.562757565611E+002   2.470971863784E+002   2.330854195624E+002   2.333794867432E+002 
  2.359905046249E+002   2.289993787534E+002   2.102067844218E+002   2.247836012756E+002   2.174024747398E+002   1.979100872161E+002   1.924194956740E+002   1.937307859843E+002   1.741166502354E+002   1.687654422331E+002 
  3.484590060662E+002   3.705721083905E+002   3.886688908333E+002   4.027467912197E+002   4.020943709849E+002   3.871986474714E+002   3.747516836329E+002   3.634823171125E+002   3.532446153726E+002   3.439111416326E+002 
  3.353699252876E+002   3.275218000082E+002   3.202780462389E+002   3.135582820499E+002   3.072885522006E+002   3.039871964514E+002   3.051429768895E+002   3.004035287687E+002   2.875997010422E+002   2.824506077644E+002 
  2.819304114131E+002   2.691071653864E+002   2.662663082468E+002   2.647642183203E+002   2.523670179297E+002   2.465798264926E+002   2.425273841856E+002   2.386622546768E+002   2.321761997683E+002   2.461225126842E+002 
  2.356365479582E+002   2.224692238548E+002   2.177278000357E+002   2.232860191975E+002   2.120678258799E+002   2.153097013976E+002   2.063396000188E+002   1.894445412404E+002   1.971527379922E+002   1.833204416617E+002 
  3.732212884340E+002   3.959584688526E+002   4.146771075502E+002   4.222360714582E+002   4.051929868688E+002   3.920696904878E+002   3.801743016153E+002   3.693543699015E+002   3.594769818389E+002   3.504256009813E+002 
  3.420972974997E+002   3.344003012093E+002   3.272518198987E+002   3.205760710932E+002   3.143024804623E+002   3.083640040419E+002   3.026955343839E+002   2.916228740678E+002   2.995515240420E+002   2.900932171371E+002 
  2.802098051659E+002   2.724825063781E+002   2.752642059751E+002   2.627223966492E+002   2.595926463211E+002   2.497309025509E+002   2.486231781731E+002   2.403111678352E+002   2.498875355180E+002   2.446650299487E+002 
  2.384133901876E+002   2.292425268598E+002   2.271015292266E+002   2.290615986179E+002   2.248052960172E+002   2.148830627084E+002   2.039184678095E+002   1.889776132876E+002   2.019104646093E+002   1.874701839918E+002 
  4.020042288546E+002   4.253633112140E+002   4.410383231921E+002   4.234974840423E+002   4.096804815244E+002   3.971439880775E+002   3.857286769870E+002   3.752958454147E+002   3.657241169879E+002   3.569065562935E+002 
  3.487481266807E+002   3.411634309346E+002   3.340746811113E+002   3.274098492680E+002   3.211009551291E+002   3.150824499760E+002   3.092896583445E+002   3.036572404813E+002   2.955615050872E+002   2.937741628487E+002 
  2.856304165653E+002   2.802967328105E+002   2.728195443307E+002   2.632763315933E+002   2.615424712093E+002   2.591232650141E+002   2.532624561555E+002   2.504589384583E+002   2.482121986516E+002   2.427994654833E+002 
  2.374313560676E+002   2.251820102332E+002   2.314682359400E+002   2.255542056335E+002   2.199892430734E+002   2.121089329583E+002   2.014518735996E+002   2.069401036358E+002   1.984327979230E+002   1.902675118355E+002 
  4.348056573155E+002   4.575995079280E+002   4.430841149770E+002   4.275892607220E+002   4.143959001858E+002   4.023714875654E+002   3.913712044728E+002   3.812685491394E+002   3.719523290637E+002   3.633240176088E+002 
  3.552954117082E+002   3.477865349965E+002   3.407237365144E+002   3.340379397893E+002   3.276630006663E+002   3.215341348490E+002   3.155863777697E+002   3.097530401729E+002   3.039641226980E+002   2.981446517699E+002 
  2.904480976216E+002   2.812671132126E+002   2.752333173256E+002   2.721128337495E+002   2.620932187132E+002   2.609752135420E+002   2.552570391116E+002   2.527194805151E+002   2.444792267340E+002   2.346452677034E+002 
  2.322309060189E+002   2.366577381439E+002   2.293274954527E+002   2.184568080469E+002   2.130118568722E+002   2.126575846068E+002   2.114225426401E+002   2.070612250981E+002   2.007025118289E+002   1.931573302290E+002 
  4.714629780573E+002   4.648835002447E+002   4.458014709893E+002   4.319347634837E+002   4.192869221566E+002   4.077066724672E+002   3.970620897276E+002   3.872374628306E+002   3.781305434253E+002   3.696501151461E+002 
  3.617138251074E+002   3.542462261109E+002   3.471769830243E+002   3.404392006894E+002   3.339678336100E+002   3.276981396113E+002   3.215641407115E+002   3.154970546130E+002   3.094236595273E+002   3.032645534576E+002 
  2.969322665593E+002   2.804163432426E+002   2.757468333572E+002   2.725796369403E+002   2.679829547668E+002   2.612168415547E+002   2.581350053534E+002   2.522002004117E+002   2.488587031210E+002   2.446657961805E+002 
  2.408691197625E+002   2.323941519119E+002   2.254222521005E+002   2.287547953555E+002   2.201887961576E+002   2.215099680831E+002   2.148478581028E+002   2.095602238203E+002   2.038645932880E+002   1.967310760807E+002 
  4.870492336973E+002   4.643228069660E+002   4.497655164862E+002   4.364792805554E+002   4.243060126922E+002   4.131080550119E+002   4.027649056568E+002   3.931703540811E+002   3.842299560854E+002   3.758587885752E+002 
  3.679794306670E+002   3.605201231453E+002   3.534130625158E+002   3.465927890995E+002   3.399946308459E+002   3.335531658709E+002   3.272006671689E+002   3.208654925250E+002   3.144703813494E+002   3.079306179457E+002 
  3.011520175472E+002   2.940286872426E+002   2.864405085628E+002   2.741746817686E+002   2.684584128195E+002   2.648616050312E+002   2.568521618092E+002   2.549655819923E+002   2.466896326821E+002   2.487213477376E+002 
  2.384602105673E+002   2.332010906067E+002   2.363561079810E+002   2.297511311217E+002   2.250836403756E+002   2.231315970071E+002   2.183003234232E+002   2.126419939868E+002   2.067840025121E+002   2.012383927610E+002 
  4.837904784089E+002   4.678933222947E+002   4.539530519439E+002   4.411731471333E+002   4.294098930190E+002   4.185377135812E+002   4.084461862789E+002   3.990374169527E+002   3.902237125661E+002   3.819254964615E+002 
  3.740694165674E+002   3.665866015844E+002   3.594110236943E+002   3.524779288660E+002   3.457222974458E+002   3.390772984307E+002   3.324727006818E+002   3.258332033046E+002   3.190766455056E+002   3.121120533665E+002 
  3.048374771025E+002   2.971375673893E+002   2.888808331393E+002   2.799165155374E+002   2.697423845549E+002   2.615332452175E+002   2.559605805110E+002   2.516682203634E+002   2.511957246749E+002   2.461634605018E+002 
  2.402710042736E+002   2.376123212042E+002   2.350445582154E+002   2.299547583744E+002   2.270015433642E+002   2.275014077177E+002   2.225748083868E+002   2.165164833387E+002   2.096272758931E+002   2.041755222110E+002 
  4.863235807400E+002   4.717129254502E+002   4.583121656912E+002   4.459711916527E+002   4.345590578062E+002   4.239608699097E+002   4.140750536030E+002   4.048109396599E+002   3.960866084897E+002   3.878269426458E+002 
  3.799618410435E+002   3.724245524318E+002   3.651500885027E+002   3.580736789106E+002   3.511292314734E+002   3.442477609492E+002   3.373557490366E+002   3.303733966080E+002   3.232127266294E+002   3.157754926633E+002 
  3.079508432368E+002   2.996126865458E+002   2.906166928489E+002   2.807968632869E+002   2.696982535794E+002   2.651365806369E+002   2.613964311461E+002   2.583021281426E+002   2.544807153456E+002   2.476870292813E+002 
  2.437809568045E+002   2.426342087721E+002   2.386889866068E+002   2.336944705554E+002   2.297214817839E+002   2.288408414581E+002   2.276491603806E+002   2.212127141048E+002   2.139307447647E+002   2.059219030087E+002 
