# Output Control file, modified by QSWATMOD2 plugin version 2.0. - 02/04/22 14:04:21 -
# Output Control file created on 2/4/2022 by ModelMuse version 4.3.0.0.
HEAD SAVE FORMAT (10(1X1PE13.5)) LABEL
HEAD	SAVE	UNIT	5037
DRAWDOWN SAVE FORMAT (10(1X1PE13.5)) LABEL
DRAWDOWN SAVE UNIT     38
COMPACT BUDGET AUXILIARY
PERIOD     1 STEP     1
     SAVE HEAD
     SAVE DRAWDOWN
     SAVE BUDGET
     PRINT BUDGET
PERIOD     1 STEP     2
     SAVE HEAD
     SAVE DRAWDOWN
     SAVE BUDGET
     PRINT BUDGET
PERIOD     1 STEP     3
     SAVE HEAD
     SAVE DRAWDOWN
     SAVE BUDGET
     PRINT BUDGET
PERIOD     1 STEP     4
     SAVE HEAD
     SAVE DRAWDOWN
     SAVE BUDGET
     PRINT BUDGET
PERIOD     1 STEP     5
     SAVE HEAD
     SAVE DRAWDOWN
     SAVE BUDGET
     PRINT BUDGET
PERIOD     1 STEP     6
     SAVE HEAD
     SAVE DRAWDOWN
     SAVE BUDGET
     PRINT BUDGET
PERIOD     1 STEP     7
     SAVE HEAD
     SAVE DRAWDOWN
     SAVE BUDGET
     PRINT BUDGET
PERIOD     1 STEP     8
     SAVE HEAD
     SAVE DRAWDOWN
     SAVE BUDGET
     PRINT BUDGET
PERIOD     1 STEP     9
     SAVE HEAD
     SAVE DRAWDOWN
     SAVE BUDGET
     PRINT BUDGET
PERIOD     1 STEP    10
     SAVE HEAD
     SAVE DRAWDOWN
     SAVE BUDGET
     PRINT BUDGET
PERIOD     1 STEP    11
     SAVE HEAD
     SAVE DRAWDOWN
     SAVE BUDGET
     PRINT BUDGET
PERIOD     1 STEP    12
     SAVE HEAD
     SAVE DRAWDOWN
     SAVE BUDGET
     PRINT BUDGET
PERIOD     1 STEP    13
     SAVE HEAD
     SAVE DRAWDOWN
     SAVE BUDGET
     PRINT BUDGET
PERIOD     1 STEP    14
     SAVE HEAD
     SAVE DRAWDOWN
     SAVE BUDGET
     PRINT BUDGET
PERIOD     1 STEP    15
     SAVE HEAD
     SAVE DRAWDOWN
     SAVE BUDGET
     PRINT BUDGET
PERIOD     1 STEP    16
     SAVE HEAD
     SAVE DRAWDOWN
     SAVE BUDGET
     PRINT BUDGET
PERIOD     1 STEP    17
     SAVE HEAD
     SAVE DRAWDOWN
     SAVE BUDGET
     PRINT BUDGET
PERIOD     1 STEP    18
     SAVE HEAD
     SAVE DRAWDOWN
     SAVE BUDGET
     PRINT BUDGET
PERIOD     1 STEP    19
     SAVE HEAD
     SAVE DRAWDOWN
     SAVE BUDGET
     PRINT BUDGET
PERIOD     1 STEP    20
     SAVE HEAD
     SAVE DRAWDOWN
     SAVE BUDGET
     PRINT BUDGET
PERIOD     1 STEP    21
     SAVE HEAD
     SAVE DRAWDOWN
     SAVE BUDGET
     PRINT BUDGET
PERIOD     1 STEP    22
     SAVE HEAD
     SAVE DRAWDOWN
     SAVE BUDGET
     PRINT BUDGET
PERIOD     1 STEP    23
     SAVE HEAD
     SAVE DRAWDOWN
     SAVE BUDGET
     PRINT BUDGET
PERIOD     1 STEP    24
     SAVE HEAD
     SAVE DRAWDOWN
     SAVE BUDGET
     PRINT BUDGET
PERIOD     1 STEP    25
     SAVE HEAD
     SAVE DRAWDOWN
     SAVE BUDGET
     PRINT BUDGET
PERIOD     1 STEP    26
     SAVE HEAD
     SAVE DRAWDOWN
     SAVE BUDGET
     PRINT BUDGET
PERIOD     1 STEP    27
     SAVE HEAD
     SAVE DRAWDOWN
     SAVE BUDGET
     PRINT BUDGET
PERIOD     1 STEP    28
     SAVE HEAD
     SAVE DRAWDOWN
     SAVE BUDGET
     PRINT BUDGET
PERIOD     1 STEP    29
     SAVE HEAD
     SAVE DRAWDOWN
     SAVE BUDGET
     PRINT BUDGET
PERIOD     1 STEP    30
     SAVE HEAD
     SAVE DRAWDOWN
     SAVE BUDGET
     PRINT BUDGET
PERIOD     1 STEP    31
     SAVE HEAD
     SAVE DRAWDOWN
     SAVE BUDGET
     PRINT BUDGET
PERIOD     1 STEP    32
     SAVE HEAD
     SAVE DRAWDOWN
     SAVE BUDGET
     PRINT BUDGET
PERIOD     1 STEP    33
     SAVE HEAD
     SAVE DRAWDOWN
     SAVE BUDGET
     PRINT BUDGET
PERIOD     1 STEP    34
     SAVE HEAD
     SAVE DRAWDOWN
     SAVE BUDGET
     PRINT BUDGET
PERIOD     1 STEP    35
     SAVE HEAD
     SAVE DRAWDOWN
     SAVE BUDGET
     PRINT BUDGET
PERIOD     1 STEP    36
     SAVE HEAD
     SAVE DRAWDOWN
     SAVE BUDGET
     PRINT BUDGET
PERIOD     1 STEP    37
     SAVE HEAD
     SAVE DRAWDOWN
     SAVE BUDGET
     PRINT BUDGET
PERIOD     1 STEP    38
     SAVE HEAD
     SAVE DRAWDOWN
     SAVE BUDGET
     PRINT BUDGET
PERIOD     1 STEP    39
     SAVE HEAD
     SAVE DRAWDOWN
     SAVE BUDGET
     PRINT BUDGET
PERIOD     1 STEP    40
     SAVE HEAD
     SAVE DRAWDOWN
     SAVE BUDGET
     PRINT BUDGET
PERIOD     1 STEP    41
     SAVE HEAD
     SAVE DRAWDOWN
     SAVE BUDGET
     PRINT BUDGET
PERIOD     1 STEP    42
     SAVE HEAD
     SAVE DRAWDOWN
     SAVE BUDGET
     PRINT BUDGET
PERIOD     1 STEP    43
     SAVE HEAD
     SAVE DRAWDOWN
     SAVE BUDGET
     PRINT BUDGET
PERIOD     1 STEP    44
     SAVE HEAD
     SAVE DRAWDOWN
     SAVE BUDGET
     PRINT BUDGET
PERIOD     1 STEP    45
     SAVE HEAD
     SAVE DRAWDOWN
     SAVE BUDGET
     PRINT BUDGET
PERIOD     1 STEP    46
     SAVE HEAD
     SAVE DRAWDOWN
     SAVE BUDGET
     PRINT BUDGET
PERIOD     1 STEP    47
     SAVE HEAD
     SAVE DRAWDOWN
     SAVE BUDGET
     PRINT BUDGET
PERIOD     1 STEP    48
     SAVE HEAD
     SAVE DRAWDOWN
     SAVE BUDGET
     PRINT BUDGET
PERIOD     1 STEP    49
     SAVE HEAD
     SAVE DRAWDOWN
     SAVE BUDGET
     PRINT BUDGET
PERIOD     1 STEP    50
     SAVE HEAD
     SAVE DRAWDOWN
     SAVE BUDGET
     PRINT BUDGET
PERIOD     1 STEP    51
     SAVE HEAD
     SAVE DRAWDOWN
     SAVE BUDGET
     PRINT BUDGET
PERIOD     1 STEP    52
     SAVE HEAD
     SAVE DRAWDOWN
     SAVE BUDGET
     PRINT BUDGET
PERIOD     1 STEP    53
     SAVE HEAD
     SAVE DRAWDOWN
     SAVE BUDGET
     PRINT BUDGET
PERIOD     1 STEP    54
     SAVE HEAD
     SAVE DRAWDOWN
     SAVE BUDGET
     PRINT BUDGET
PERIOD     1 STEP    55
     SAVE HEAD
     SAVE DRAWDOWN
     SAVE BUDGET
     PRINT BUDGET
PERIOD     1 STEP    56
     SAVE HEAD
     SAVE DRAWDOWN
     SAVE BUDGET
     PRINT BUDGET
PERIOD     1 STEP    57
     SAVE HEAD
     SAVE DRAWDOWN
     SAVE BUDGET
     PRINT BUDGET
PERIOD     1 STEP    58
     SAVE HEAD
     SAVE DRAWDOWN
     SAVE BUDGET
     PRINT BUDGET
PERIOD     1 STEP    59
     SAVE HEAD
     SAVE DRAWDOWN
     SAVE BUDGET
     PRINT BUDGET
PERIOD     1 STEP    60
     SAVE HEAD
     SAVE DRAWDOWN
     SAVE BUDGET
     PRINT BUDGET
PERIOD     1 STEP    61
     SAVE HEAD
     SAVE DRAWDOWN
     SAVE BUDGET
     PRINT BUDGET
PERIOD     1 STEP    62
     SAVE HEAD
     SAVE DRAWDOWN
     SAVE BUDGET
     PRINT BUDGET
PERIOD     1 STEP    63
     SAVE HEAD
     SAVE DRAWDOWN
     SAVE BUDGET
     PRINT BUDGET
PERIOD     1 STEP    64
     SAVE HEAD
     SAVE DRAWDOWN
     SAVE BUDGET
     PRINT BUDGET
PERIOD     1 STEP    65
     SAVE HEAD
     SAVE DRAWDOWN
     SAVE BUDGET
     PRINT BUDGET
PERIOD     1 STEP    66
     SAVE HEAD
     SAVE DRAWDOWN
     SAVE BUDGET
     PRINT BUDGET
PERIOD     1 STEP    67
     SAVE HEAD
     SAVE DRAWDOWN
     SAVE BUDGET
     PRINT BUDGET
PERIOD     1 STEP    68
     SAVE HEAD
     SAVE DRAWDOWN
     SAVE BUDGET
     PRINT BUDGET
PERIOD     1 STEP    69
     SAVE HEAD
     SAVE DRAWDOWN
     SAVE BUDGET
     PRINT BUDGET
PERIOD     1 STEP    70
     SAVE HEAD
     SAVE DRAWDOWN
     SAVE BUDGET
     PRINT BUDGET
PERIOD     1 STEP    71
     SAVE HEAD
     SAVE DRAWDOWN
     SAVE BUDGET
     PRINT BUDGET
PERIOD     1 STEP    72
     SAVE HEAD
     SAVE DRAWDOWN
     SAVE BUDGET
     PRINT BUDGET
PERIOD     1 STEP    73
     SAVE HEAD
     SAVE DRAWDOWN
     SAVE BUDGET
     PRINT BUDGET
PERIOD     1 STEP    74
     SAVE HEAD
     SAVE DRAWDOWN
     SAVE BUDGET
     PRINT BUDGET
PERIOD     1 STEP    75
     SAVE HEAD
     SAVE DRAWDOWN
     SAVE BUDGET
     PRINT BUDGET
PERIOD     1 STEP    76
     SAVE HEAD
     SAVE DRAWDOWN
     SAVE BUDGET
     PRINT BUDGET
PERIOD     1 STEP    77
     SAVE HEAD
     SAVE DRAWDOWN
     SAVE BUDGET
     PRINT BUDGET
PERIOD     1 STEP    78
     SAVE HEAD
     SAVE DRAWDOWN
     SAVE BUDGET
     PRINT BUDGET
PERIOD     1 STEP    79
     SAVE HEAD
     SAVE DRAWDOWN
     SAVE BUDGET
     PRINT BUDGET
PERIOD     1 STEP    80
     SAVE HEAD
     SAVE DRAWDOWN
     SAVE BUDGET
     PRINT BUDGET
PERIOD     1 STEP    81
     SAVE HEAD
     SAVE DRAWDOWN
     SAVE BUDGET
     PRINT BUDGET
PERIOD     1 STEP    82
     SAVE HEAD
     SAVE DRAWDOWN
     SAVE BUDGET
     PRINT BUDGET
PERIOD     1 STEP    83
     SAVE HEAD
     SAVE DRAWDOWN
     SAVE BUDGET
     PRINT BUDGET
PERIOD     1 STEP    84
     SAVE HEAD
     SAVE DRAWDOWN
     SAVE BUDGET
     PRINT BUDGET
PERIOD     1 STEP    85
     SAVE HEAD
     SAVE DRAWDOWN
     SAVE BUDGET
     PRINT BUDGET
PERIOD     1 STEP    86
     SAVE HEAD
     SAVE DRAWDOWN
     SAVE BUDGET
     PRINT BUDGET
PERIOD     1 STEP    87
     SAVE HEAD
     SAVE DRAWDOWN
     SAVE BUDGET
     PRINT BUDGET
PERIOD     1 STEP    88
     SAVE HEAD
     SAVE DRAWDOWN
     SAVE BUDGET
     PRINT BUDGET
PERIOD     1 STEP    89
     SAVE HEAD
     SAVE DRAWDOWN
     SAVE BUDGET
     PRINT BUDGET
PERIOD     1 STEP    90
     SAVE HEAD
     SAVE DRAWDOWN
     SAVE BUDGET
     PRINT BUDGET
PERIOD     1 STEP    91
     SAVE HEAD
     SAVE DRAWDOWN
     SAVE BUDGET
     PRINT BUDGET
PERIOD     1 STEP    92
     SAVE HEAD
     SAVE DRAWDOWN
     SAVE BUDGET
     PRINT BUDGET
PERIOD     1 STEP    93
     SAVE HEAD
     SAVE DRAWDOWN
     SAVE BUDGET
     PRINT BUDGET
PERIOD     1 STEP    94
     SAVE HEAD
     SAVE DRAWDOWN
     SAVE BUDGET
     PRINT BUDGET
PERIOD     1 STEP    95
     SAVE HEAD
     SAVE DRAWDOWN
     SAVE BUDGET
     PRINT BUDGET
PERIOD     1 STEP    96
     SAVE HEAD
     SAVE DRAWDOWN
     SAVE BUDGET
     PRINT BUDGET
PERIOD     1 STEP    97
     SAVE HEAD
     SAVE DRAWDOWN
     SAVE BUDGET
     PRINT BUDGET
PERIOD     1 STEP    98
     SAVE HEAD
     SAVE DRAWDOWN
     SAVE BUDGET
     PRINT BUDGET
PERIOD     1 STEP    99
     SAVE HEAD
     SAVE DRAWDOWN
     SAVE BUDGET
     PRINT BUDGET
PERIOD     1 STEP   100
     SAVE HEAD
     SAVE DRAWDOWN
     SAVE BUDGET
     PRINT BUDGET
PERIOD     1 STEP   101
     SAVE HEAD
     SAVE DRAWDOWN
     SAVE BUDGET
     PRINT BUDGET
PERIOD     1 STEP   102
     SAVE HEAD
     SAVE DRAWDOWN
     SAVE BUDGET
     PRINT BUDGET
PERIOD     1 STEP   103
     SAVE HEAD
     SAVE DRAWDOWN
     SAVE BUDGET
     PRINT BUDGET
PERIOD     1 STEP   104
     SAVE HEAD
     SAVE DRAWDOWN
     SAVE BUDGET
     PRINT BUDGET
PERIOD     1 STEP   105
     SAVE HEAD
     SAVE DRAWDOWN
     SAVE BUDGET
     PRINT BUDGET
PERIOD     1 STEP   106
     SAVE HEAD
     SAVE DRAWDOWN
     SAVE BUDGET
     PRINT BUDGET
PERIOD     1 STEP   107
     SAVE HEAD
     SAVE DRAWDOWN
     SAVE BUDGET
     PRINT BUDGET
PERIOD     1 STEP   108
     SAVE HEAD
     SAVE DRAWDOWN
     SAVE BUDGET
     PRINT BUDGET
PERIOD     1 STEP   109
     SAVE HEAD
     SAVE DRAWDOWN
     SAVE BUDGET
     PRINT BUDGET
PERIOD     1 STEP   110
     SAVE HEAD
     SAVE DRAWDOWN
     SAVE BUDGET
     PRINT BUDGET
PERIOD     1 STEP   111
     SAVE HEAD
     SAVE DRAWDOWN
     SAVE BUDGET
     PRINT BUDGET
PERIOD     1 STEP   112
     SAVE HEAD
     SAVE DRAWDOWN
     SAVE BUDGET
     PRINT BUDGET
PERIOD     1 STEP   113
     SAVE HEAD
     SAVE DRAWDOWN
     SAVE BUDGET
     PRINT BUDGET
PERIOD     1 STEP   114
     SAVE HEAD
     SAVE DRAWDOWN
     SAVE BUDGET
     PRINT BUDGET
PERIOD     1 STEP   115
     SAVE HEAD
     SAVE DRAWDOWN
     SAVE BUDGET
     PRINT BUDGET
PERIOD     1 STEP   116
     SAVE HEAD
     SAVE DRAWDOWN
     SAVE BUDGET
     PRINT BUDGET
PERIOD     1 STEP   117
     SAVE HEAD
     SAVE DRAWDOWN
     SAVE BUDGET
     PRINT BUDGET
PERIOD     1 STEP   118
     SAVE HEAD
     SAVE DRAWDOWN
     SAVE BUDGET
     PRINT BUDGET
PERIOD     1 STEP   119
     SAVE HEAD
     SAVE DRAWDOWN
     SAVE BUDGET
     PRINT BUDGET
PERIOD     1 STEP   120
     SAVE HEAD
     SAVE DRAWDOWN
     SAVE BUDGET
     PRINT BUDGET
PERIOD     1 STEP   121
     SAVE HEAD
     SAVE DRAWDOWN
     SAVE BUDGET
     PRINT BUDGET
PERIOD     1 STEP   122
     SAVE HEAD
     SAVE DRAWDOWN
     SAVE BUDGET
     PRINT BUDGET
PERIOD     1 STEP   123
     SAVE HEAD
     SAVE DRAWDOWN
     SAVE BUDGET
     PRINT BUDGET
PERIOD     1 STEP   124
     SAVE HEAD
     SAVE DRAWDOWN
     SAVE BUDGET
     PRINT BUDGET
PERIOD     1 STEP   125
     SAVE HEAD
     SAVE DRAWDOWN
     SAVE BUDGET
     PRINT BUDGET
PERIOD     1 STEP   126
     SAVE HEAD
     SAVE DRAWDOWN
     SAVE BUDGET
     PRINT BUDGET
PERIOD     1 STEP   127
     SAVE HEAD
     SAVE DRAWDOWN
     SAVE BUDGET
     PRINT BUDGET
PERIOD     1 STEP   128
     SAVE HEAD
     SAVE DRAWDOWN
     SAVE BUDGET
     PRINT BUDGET
PERIOD     1 STEP   129
     SAVE HEAD
     SAVE DRAWDOWN
     SAVE BUDGET
     PRINT BUDGET
PERIOD     1 STEP   130
     SAVE HEAD
     SAVE DRAWDOWN
     SAVE BUDGET
     PRINT BUDGET
PERIOD     1 STEP   131
     SAVE HEAD
     SAVE DRAWDOWN
     SAVE BUDGET
     PRINT BUDGET
PERIOD     1 STEP   132
     SAVE HEAD
     SAVE DRAWDOWN
     SAVE BUDGET
     PRINT BUDGET
PERIOD     1 STEP   133
     SAVE HEAD
     SAVE DRAWDOWN
     SAVE BUDGET
     PRINT BUDGET
PERIOD     1 STEP   134
     SAVE HEAD
     SAVE DRAWDOWN
     SAVE BUDGET
     PRINT BUDGET
PERIOD     1 STEP   135
     SAVE HEAD
     SAVE DRAWDOWN
     SAVE BUDGET
     PRINT BUDGET
PERIOD     1 STEP   136
     SAVE HEAD
     SAVE DRAWDOWN
     SAVE BUDGET
     PRINT BUDGET
PERIOD     1 STEP   137
     SAVE HEAD
     SAVE DRAWDOWN
     SAVE BUDGET
     PRINT BUDGET
PERIOD     1 STEP   138
     SAVE HEAD
     SAVE DRAWDOWN
     SAVE BUDGET
     PRINT BUDGET
PERIOD     1 STEP   139
     SAVE HEAD
     SAVE DRAWDOWN
     SAVE BUDGET
     PRINT BUDGET
PERIOD     1 STEP   140
     SAVE HEAD
     SAVE DRAWDOWN
     SAVE BUDGET
     PRINT BUDGET
PERIOD     1 STEP   141
     SAVE HEAD
     SAVE DRAWDOWN
     SAVE BUDGET
     PRINT BUDGET
PERIOD     1 STEP   142
     SAVE HEAD
     SAVE DRAWDOWN
     SAVE BUDGET
     PRINT BUDGET
PERIOD     1 STEP   143
     SAVE HEAD
     SAVE DRAWDOWN
     SAVE BUDGET
     PRINT BUDGET
PERIOD     1 STEP   144
     SAVE HEAD
     SAVE DRAWDOWN
     SAVE BUDGET
     PRINT BUDGET
PERIOD     1 STEP   145
     SAVE HEAD
     SAVE DRAWDOWN
     SAVE BUDGET
     PRINT BUDGET
PERIOD     1 STEP   146
     SAVE HEAD
     SAVE DRAWDOWN
     SAVE BUDGET
     PRINT BUDGET
PERIOD     1 STEP   147
     SAVE HEAD
     SAVE DRAWDOWN
     SAVE BUDGET
     PRINT BUDGET
PERIOD     1 STEP   148
     SAVE HEAD
     SAVE DRAWDOWN
     SAVE BUDGET
     PRINT BUDGET
PERIOD     1 STEP   149
     SAVE HEAD
     SAVE DRAWDOWN
     SAVE BUDGET
     PRINT BUDGET
PERIOD     1 STEP   150
     SAVE HEAD
     SAVE DRAWDOWN
     SAVE BUDGET
     PRINT BUDGET
PERIOD     1 STEP   151
     SAVE HEAD
     SAVE DRAWDOWN
     SAVE BUDGET
     PRINT BUDGET
PERIOD     1 STEP   152
     SAVE HEAD
     SAVE DRAWDOWN
     SAVE BUDGET
     PRINT BUDGET
PERIOD     1 STEP   153
     SAVE HEAD
     SAVE DRAWDOWN
     SAVE BUDGET
     PRINT BUDGET
PERIOD     1 STEP   154
     SAVE HEAD
     SAVE DRAWDOWN
     SAVE BUDGET
     PRINT BUDGET
PERIOD     1 STEP   155
     SAVE HEAD
     SAVE DRAWDOWN
     SAVE BUDGET
     PRINT BUDGET
PERIOD     1 STEP   156
     SAVE HEAD
     SAVE DRAWDOWN
     SAVE BUDGET
     PRINT BUDGET
PERIOD     1 STEP   157
     SAVE HEAD
     SAVE DRAWDOWN
     SAVE BUDGET
     PRINT BUDGET
PERIOD     1 STEP   158
     SAVE HEAD
     SAVE DRAWDOWN
     SAVE BUDGET
     PRINT BUDGET
PERIOD     1 STEP   159
     SAVE HEAD
     SAVE DRAWDOWN
     SAVE BUDGET
     PRINT BUDGET
PERIOD     1 STEP   160
     SAVE HEAD
     SAVE DRAWDOWN
     SAVE BUDGET
     PRINT BUDGET
PERIOD     1 STEP   161
     SAVE HEAD
     SAVE DRAWDOWN
     SAVE BUDGET
     PRINT BUDGET
PERIOD     1 STEP   162
     SAVE HEAD
     SAVE DRAWDOWN
     SAVE BUDGET
     PRINT BUDGET
PERIOD     1 STEP   163
     SAVE HEAD
     SAVE DRAWDOWN
     SAVE BUDGET
     PRINT BUDGET
PERIOD     1 STEP   164
     SAVE HEAD
     SAVE DRAWDOWN
     SAVE BUDGET
     PRINT BUDGET
PERIOD     1 STEP   165
     SAVE HEAD
     SAVE DRAWDOWN
     SAVE BUDGET
     PRINT BUDGET
PERIOD     1 STEP   166
     SAVE HEAD
     SAVE DRAWDOWN
     SAVE BUDGET
     PRINT BUDGET
PERIOD     1 STEP   167
     SAVE HEAD
     SAVE DRAWDOWN
     SAVE BUDGET
     PRINT BUDGET
PERIOD     1 STEP   168
     SAVE HEAD
     SAVE DRAWDOWN
     SAVE BUDGET
     PRINT BUDGET
PERIOD     1 STEP   169
     SAVE HEAD
     SAVE DRAWDOWN
     SAVE BUDGET
     PRINT BUDGET
PERIOD     1 STEP   170
     SAVE HEAD
     SAVE DRAWDOWN
     SAVE BUDGET
     PRINT BUDGET
PERIOD     1 STEP   171
     SAVE HEAD
     SAVE DRAWDOWN
     SAVE BUDGET
     PRINT BUDGET
PERIOD     1 STEP   172
     SAVE HEAD
     SAVE DRAWDOWN
     SAVE BUDGET
     PRINT BUDGET
PERIOD     1 STEP   173
     SAVE HEAD
     SAVE DRAWDOWN
     SAVE BUDGET
     PRINT BUDGET
PERIOD     1 STEP   174
     SAVE HEAD
     SAVE DRAWDOWN
     SAVE BUDGET
     PRINT BUDGET
PERIOD     1 STEP   175
     SAVE HEAD
     SAVE DRAWDOWN
     SAVE BUDGET
     PRINT BUDGET
PERIOD     1 STEP   176
     SAVE HEAD
     SAVE DRAWDOWN
     SAVE BUDGET
     PRINT BUDGET
PERIOD     1 STEP   177
     SAVE HEAD
     SAVE DRAWDOWN
     SAVE BUDGET
     PRINT BUDGET
PERIOD     1 STEP   178
     SAVE HEAD
     SAVE DRAWDOWN
     SAVE BUDGET
     PRINT BUDGET
PERIOD     1 STEP   179
     SAVE HEAD
     SAVE DRAWDOWN
     SAVE BUDGET
     PRINT BUDGET
PERIOD     1 STEP   180
     SAVE HEAD
     SAVE DRAWDOWN
     SAVE BUDGET
     PRINT BUDGET
PERIOD     1 STEP   181
     SAVE HEAD
     SAVE DRAWDOWN
     SAVE BUDGET
     PRINT BUDGET
PERIOD     1 STEP   182
     SAVE HEAD
     SAVE DRAWDOWN
     SAVE BUDGET
     PRINT BUDGET
PERIOD     1 STEP   183
     SAVE HEAD
     SAVE DRAWDOWN
     SAVE BUDGET
     PRINT BUDGET
PERIOD     1 STEP   184
     SAVE HEAD
     SAVE DRAWDOWN
     SAVE BUDGET
     PRINT BUDGET
PERIOD     1 STEP   185
     SAVE HEAD
     SAVE DRAWDOWN
     SAVE BUDGET
     PRINT BUDGET
PERIOD     1 STEP   186
     SAVE HEAD
     SAVE DRAWDOWN
     SAVE BUDGET
     PRINT BUDGET
PERIOD     1 STEP   187
     SAVE HEAD
     SAVE DRAWDOWN
     SAVE BUDGET
     PRINT BUDGET
PERIOD     1 STEP   188
     SAVE HEAD
     SAVE DRAWDOWN
     SAVE BUDGET
     PRINT BUDGET
PERIOD     1 STEP   189
     SAVE HEAD
     SAVE DRAWDOWN
     SAVE BUDGET
     PRINT BUDGET
PERIOD     1 STEP   190
     SAVE HEAD
     SAVE DRAWDOWN
     SAVE BUDGET
     PRINT BUDGET
PERIOD     1 STEP   191
     SAVE HEAD
     SAVE DRAWDOWN
     SAVE BUDGET
     PRINT BUDGET
PERIOD     1 STEP   192
     SAVE HEAD
     SAVE DRAWDOWN
     SAVE BUDGET
     PRINT BUDGET
PERIOD     1 STEP   193
     SAVE HEAD
     SAVE DRAWDOWN
     SAVE BUDGET
     PRINT BUDGET
PERIOD     1 STEP   194
     SAVE HEAD
     SAVE DRAWDOWN
     SAVE BUDGET
     PRINT BUDGET
PERIOD     1 STEP   195
     SAVE HEAD
     SAVE DRAWDOWN
     SAVE BUDGET
     PRINT BUDGET
PERIOD     1 STEP   196
     SAVE HEAD
     SAVE DRAWDOWN
     SAVE BUDGET
     PRINT BUDGET
PERIOD     1 STEP   197
     SAVE HEAD
     SAVE DRAWDOWN
     SAVE BUDGET
     PRINT BUDGET
PERIOD     1 STEP   198
     SAVE HEAD
     SAVE DRAWDOWN
     SAVE BUDGET
     PRINT BUDGET
PERIOD     1 STEP   199
     SAVE HEAD
     SAVE DRAWDOWN
     SAVE BUDGET
     PRINT BUDGET
PERIOD     1 STEP   200
     SAVE HEAD
     SAVE DRAWDOWN
     SAVE BUDGET
     PRINT BUDGET
PERIOD     1 STEP   201
     SAVE HEAD
     SAVE DRAWDOWN
     SAVE BUDGET
     PRINT BUDGET
PERIOD     1 STEP   202
     SAVE HEAD
     SAVE DRAWDOWN
     SAVE BUDGET
     PRINT BUDGET
PERIOD     1 STEP   203
     SAVE HEAD
     SAVE DRAWDOWN
     SAVE BUDGET
     PRINT BUDGET
PERIOD     1 STEP   204
     SAVE HEAD
     SAVE DRAWDOWN
     SAVE BUDGET
     PRINT BUDGET
PERIOD     1 STEP   205
     SAVE HEAD
     SAVE DRAWDOWN
     SAVE BUDGET
     PRINT BUDGET
PERIOD     1 STEP   206
     SAVE HEAD
     SAVE DRAWDOWN
     SAVE BUDGET
     PRINT BUDGET
PERIOD     1 STEP   207
     SAVE HEAD
     SAVE DRAWDOWN
     SAVE BUDGET
     PRINT BUDGET
PERIOD     1 STEP   208
     SAVE HEAD
     SAVE DRAWDOWN
     SAVE BUDGET
     PRINT BUDGET
PERIOD     1 STEP   209
     SAVE HEAD
     SAVE DRAWDOWN
     SAVE BUDGET
     PRINT BUDGET
PERIOD     1 STEP   210
     SAVE HEAD
     SAVE DRAWDOWN
     SAVE BUDGET
     PRINT BUDGET
PERIOD     1 STEP   211
     SAVE HEAD
     SAVE DRAWDOWN
     SAVE BUDGET
     PRINT BUDGET
PERIOD     1 STEP   212
     SAVE HEAD
     SAVE DRAWDOWN
     SAVE BUDGET
     PRINT BUDGET
PERIOD     1 STEP   213
     SAVE HEAD
     SAVE DRAWDOWN
     SAVE BUDGET
     PRINT BUDGET
PERIOD     1 STEP   214
     SAVE HEAD
     SAVE DRAWDOWN
     SAVE BUDGET
     PRINT BUDGET
PERIOD     1 STEP   215
     SAVE HEAD
     SAVE DRAWDOWN
     SAVE BUDGET
     PRINT BUDGET
PERIOD     1 STEP   216
     SAVE HEAD
     SAVE DRAWDOWN
     SAVE BUDGET
     PRINT BUDGET
PERIOD     1 STEP   217
     SAVE HEAD
     SAVE DRAWDOWN
     SAVE BUDGET
     PRINT BUDGET
PERIOD     1 STEP   218
     SAVE HEAD
     SAVE DRAWDOWN
     SAVE BUDGET
     PRINT BUDGET
PERIOD     1 STEP   219
     SAVE HEAD
     SAVE DRAWDOWN
     SAVE BUDGET
     PRINT BUDGET
PERIOD     1 STEP   220
     SAVE HEAD
     SAVE DRAWDOWN
     SAVE BUDGET
     PRINT BUDGET
PERIOD     1 STEP   221
     SAVE HEAD
     SAVE DRAWDOWN
     SAVE BUDGET
     PRINT BUDGET
PERIOD     1 STEP   222
     SAVE HEAD
     SAVE DRAWDOWN
     SAVE BUDGET
     PRINT BUDGET
PERIOD     1 STEP   223
     SAVE HEAD
     SAVE DRAWDOWN
     SAVE BUDGET
     PRINT BUDGET
PERIOD     1 STEP   224
     SAVE HEAD
     SAVE DRAWDOWN
     SAVE BUDGET
     PRINT BUDGET
PERIOD     1 STEP   225
     SAVE HEAD
     SAVE DRAWDOWN
     SAVE BUDGET
     PRINT BUDGET
PERIOD     1 STEP   226
     SAVE HEAD
     SAVE DRAWDOWN
     SAVE BUDGET
     PRINT BUDGET
PERIOD     1 STEP   227
     SAVE HEAD
     SAVE DRAWDOWN
     SAVE BUDGET
     PRINT BUDGET
PERIOD     1 STEP   228
     SAVE HEAD
     SAVE DRAWDOWN
     SAVE BUDGET
     PRINT BUDGET
PERIOD     1 STEP   229
     SAVE HEAD
     SAVE DRAWDOWN
     SAVE BUDGET
     PRINT BUDGET
PERIOD     1 STEP   230
     SAVE HEAD
     SAVE DRAWDOWN
     SAVE BUDGET
     PRINT BUDGET
PERIOD     1 STEP   231
     SAVE HEAD
     SAVE DRAWDOWN
     SAVE BUDGET
     PRINT BUDGET
PERIOD     1 STEP   232
     SAVE HEAD
     SAVE DRAWDOWN
     SAVE BUDGET
     PRINT BUDGET
PERIOD     1 STEP   233
     SAVE HEAD
     SAVE DRAWDOWN
     SAVE BUDGET
     PRINT BUDGET
PERIOD     1 STEP   234
     SAVE HEAD
     SAVE DRAWDOWN
     SAVE BUDGET
     PRINT BUDGET
PERIOD     1 STEP   235
     SAVE HEAD
     SAVE DRAWDOWN
     SAVE BUDGET
     PRINT BUDGET
PERIOD     1 STEP   236
     SAVE HEAD
     SAVE DRAWDOWN
     SAVE BUDGET
     PRINT BUDGET
PERIOD     1 STEP   237
     SAVE HEAD
     SAVE DRAWDOWN
     SAVE BUDGET
     PRINT BUDGET
PERIOD     1 STEP   238
     SAVE HEAD
     SAVE DRAWDOWN
     SAVE BUDGET
     PRINT BUDGET
PERIOD     1 STEP   239
     SAVE HEAD
     SAVE DRAWDOWN
     SAVE BUDGET
     PRINT BUDGET
PERIOD     1 STEP   240
     SAVE HEAD
     SAVE DRAWDOWN
     SAVE BUDGET
     PRINT BUDGET
PERIOD     1 STEP   241
     SAVE HEAD
     SAVE DRAWDOWN
     SAVE BUDGET
     PRINT BUDGET
PERIOD     1 STEP   242
     SAVE HEAD
     SAVE DRAWDOWN
     SAVE BUDGET
     PRINT BUDGET
PERIOD     1 STEP   243
     SAVE HEAD
     SAVE DRAWDOWN
     SAVE BUDGET
     PRINT BUDGET
PERIOD     1 STEP   244
     SAVE HEAD
     SAVE DRAWDOWN
     SAVE BUDGET
     PRINT BUDGET
PERIOD     1 STEP   245
     SAVE HEAD
     SAVE DRAWDOWN
     SAVE BUDGET
     PRINT BUDGET
PERIOD     1 STEP   246
     SAVE HEAD
     SAVE DRAWDOWN
     SAVE BUDGET
     PRINT BUDGET
PERIOD     1 STEP   247
     SAVE HEAD
     SAVE DRAWDOWN
     SAVE BUDGET
     PRINT BUDGET
PERIOD     1 STEP   248
     SAVE HEAD
     SAVE DRAWDOWN
     SAVE BUDGET
     PRINT BUDGET
PERIOD     1 STEP   249
     SAVE HEAD
     SAVE DRAWDOWN
     SAVE BUDGET
     PRINT BUDGET
PERIOD     1 STEP   250
     SAVE HEAD
     SAVE DRAWDOWN
     SAVE BUDGET
     PRINT BUDGET
PERIOD     1 STEP   251
     SAVE HEAD
     SAVE DRAWDOWN
     SAVE BUDGET
     PRINT BUDGET
PERIOD     1 STEP   252
     SAVE HEAD
     SAVE DRAWDOWN
     SAVE BUDGET
     PRINT BUDGET
PERIOD     1 STEP   253
     SAVE HEAD
     SAVE DRAWDOWN
     SAVE BUDGET
     PRINT BUDGET
PERIOD     1 STEP   254
     SAVE HEAD
     SAVE DRAWDOWN
     SAVE BUDGET
     PRINT BUDGET
PERIOD     1 STEP   255
     SAVE HEAD
     SAVE DRAWDOWN
     SAVE BUDGET
     PRINT BUDGET
PERIOD     1 STEP   256
     SAVE HEAD
     SAVE DRAWDOWN
     SAVE BUDGET
     PRINT BUDGET
PERIOD     1 STEP   257
     SAVE HEAD
     SAVE DRAWDOWN
     SAVE BUDGET
     PRINT BUDGET
PERIOD     1 STEP   258
     SAVE HEAD
     SAVE DRAWDOWN
     SAVE BUDGET
     PRINT BUDGET
PERIOD     1 STEP   259
     SAVE HEAD
     SAVE DRAWDOWN
     SAVE BUDGET
     PRINT BUDGET
PERIOD     1 STEP   260
     SAVE HEAD
     SAVE DRAWDOWN
     SAVE BUDGET
     PRINT BUDGET
PERIOD     1 STEP   261
     SAVE HEAD
     SAVE DRAWDOWN
     SAVE BUDGET
     PRINT BUDGET
PERIOD     1 STEP   262
     SAVE HEAD
     SAVE DRAWDOWN
     SAVE BUDGET
     PRINT BUDGET
PERIOD     1 STEP   263
     SAVE HEAD
     SAVE DRAWDOWN
     SAVE BUDGET
     PRINT BUDGET
PERIOD     1 STEP   264
     SAVE HEAD
     SAVE DRAWDOWN
     SAVE BUDGET
     PRINT BUDGET
PERIOD     1 STEP   265
     SAVE HEAD
     SAVE DRAWDOWN
     SAVE BUDGET
     PRINT BUDGET
PERIOD     1 STEP   266
     SAVE HEAD
     SAVE DRAWDOWN
     SAVE BUDGET
     PRINT BUDGET
PERIOD     1 STEP   267
     SAVE HEAD
     SAVE DRAWDOWN
     SAVE BUDGET
     PRINT BUDGET
PERIOD     1 STEP   268
     SAVE HEAD
     SAVE DRAWDOWN
     SAVE BUDGET
     PRINT BUDGET
PERIOD     1 STEP   269
     SAVE HEAD
     SAVE DRAWDOWN
     SAVE BUDGET
     PRINT BUDGET
PERIOD     1 STEP   270
     SAVE HEAD
     SAVE DRAWDOWN
     SAVE BUDGET
     PRINT BUDGET
PERIOD     1 STEP   271
     SAVE HEAD
     SAVE DRAWDOWN
     SAVE BUDGET
     PRINT BUDGET
PERIOD     1 STEP   272
     SAVE HEAD
     SAVE DRAWDOWN
     SAVE BUDGET
     PRINT BUDGET
PERIOD     1 STEP   273
     SAVE HEAD
     SAVE DRAWDOWN
     SAVE BUDGET
     PRINT BUDGET
PERIOD     1 STEP   274
     SAVE HEAD
     SAVE DRAWDOWN
     SAVE BUDGET
     PRINT BUDGET
PERIOD     1 STEP   275
     SAVE HEAD
     SAVE DRAWDOWN
     SAVE BUDGET
     PRINT BUDGET
PERIOD     1 STEP   276
     SAVE HEAD
     SAVE DRAWDOWN
     SAVE BUDGET
     PRINT BUDGET
PERIOD     1 STEP   277
     SAVE HEAD
     SAVE DRAWDOWN
     SAVE BUDGET
     PRINT BUDGET
PERIOD     1 STEP   278
     SAVE HEAD
     SAVE DRAWDOWN
     SAVE BUDGET
     PRINT BUDGET
PERIOD     1 STEP   279
     SAVE HEAD
     SAVE DRAWDOWN
     SAVE BUDGET
     PRINT BUDGET
PERIOD     1 STEP   280
     SAVE HEAD
     SAVE DRAWDOWN
     SAVE BUDGET
     PRINT BUDGET
PERIOD     1 STEP   281
     SAVE HEAD
     SAVE DRAWDOWN
     SAVE BUDGET
     PRINT BUDGET
PERIOD     1 STEP   282
     SAVE HEAD
     SAVE DRAWDOWN
     SAVE BUDGET
     PRINT BUDGET
PERIOD     1 STEP   283
     SAVE HEAD
     SAVE DRAWDOWN
     SAVE BUDGET
     PRINT BUDGET
PERIOD     1 STEP   284
     SAVE HEAD
     SAVE DRAWDOWN
     SAVE BUDGET
     PRINT BUDGET
PERIOD     1 STEP   285
     SAVE HEAD
     SAVE DRAWDOWN
     SAVE BUDGET
     PRINT BUDGET
PERIOD     1 STEP   286
     SAVE HEAD
     SAVE DRAWDOWN
     SAVE BUDGET
     PRINT BUDGET
PERIOD     1 STEP   287
     SAVE HEAD
     SAVE DRAWDOWN
     SAVE BUDGET
     PRINT BUDGET
PERIOD     1 STEP   288
     SAVE HEAD
     SAVE DRAWDOWN
     SAVE BUDGET
     PRINT BUDGET
PERIOD     1 STEP   289
     SAVE HEAD
     SAVE DRAWDOWN
     SAVE BUDGET
     PRINT BUDGET
PERIOD     1 STEP   290
     SAVE HEAD
     SAVE DRAWDOWN
     SAVE BUDGET
     PRINT BUDGET
PERIOD     1 STEP   291
     SAVE HEAD
     SAVE DRAWDOWN
     SAVE BUDGET
     PRINT BUDGET
PERIOD     1 STEP   292
     SAVE HEAD
     SAVE DRAWDOWN
     SAVE BUDGET
     PRINT BUDGET
PERIOD     1 STEP   293
     SAVE HEAD
     SAVE DRAWDOWN
     SAVE BUDGET
     PRINT BUDGET
PERIOD     1 STEP   294
     SAVE HEAD
     SAVE DRAWDOWN
     SAVE BUDGET
     PRINT BUDGET
PERIOD     1 STEP   295
     SAVE HEAD
     SAVE DRAWDOWN
     SAVE BUDGET
     PRINT BUDGET
PERIOD     1 STEP   296
     SAVE HEAD
     SAVE DRAWDOWN
     SAVE BUDGET
     PRINT BUDGET
PERIOD     1 STEP   297
     SAVE HEAD
     SAVE DRAWDOWN
     SAVE BUDGET
     PRINT BUDGET
PERIOD     1 STEP   298
     SAVE HEAD
     SAVE DRAWDOWN
     SAVE BUDGET
     PRINT BUDGET
PERIOD     1 STEP   299
     SAVE HEAD
     SAVE DRAWDOWN
     SAVE BUDGET
     PRINT BUDGET
PERIOD     1 STEP   300
     SAVE HEAD
     SAVE DRAWDOWN
     SAVE BUDGET
     PRINT BUDGET
PERIOD     1 STEP   301
     SAVE HEAD
     SAVE DRAWDOWN
     SAVE BUDGET
     PRINT BUDGET
PERIOD     1 STEP   302
     SAVE HEAD
     SAVE DRAWDOWN
     SAVE BUDGET
     PRINT BUDGET
PERIOD     1 STEP   303
     SAVE HEAD
     SAVE DRAWDOWN
     SAVE BUDGET
     PRINT BUDGET
PERIOD     1 STEP   304
     SAVE HEAD
     SAVE DRAWDOWN
     SAVE BUDGET
     PRINT BUDGET
PERIOD     1 STEP   305
     SAVE HEAD
     SAVE DRAWDOWN
     SAVE BUDGET
     PRINT BUDGET
PERIOD     1 STEP   306
     SAVE HEAD
     SAVE DRAWDOWN
     SAVE BUDGET
     PRINT BUDGET
PERIOD     1 STEP   307
     SAVE HEAD
     SAVE DRAWDOWN
     SAVE BUDGET
     PRINT BUDGET
PERIOD     1 STEP   308
     SAVE HEAD
     SAVE DRAWDOWN
     SAVE BUDGET
     PRINT BUDGET
PERIOD     1 STEP   309
     SAVE HEAD
     SAVE DRAWDOWN
     SAVE BUDGET
     PRINT BUDGET
PERIOD     1 STEP   310
     SAVE HEAD
     SAVE DRAWDOWN
     SAVE BUDGET
     PRINT BUDGET
PERIOD     1 STEP   311
     SAVE HEAD
     SAVE DRAWDOWN
     SAVE BUDGET
     PRINT BUDGET
PERIOD     1 STEP   312
     SAVE HEAD
     SAVE DRAWDOWN
     SAVE BUDGET
     PRINT BUDGET
PERIOD     1 STEP   313
     SAVE HEAD
     SAVE DRAWDOWN
     SAVE BUDGET
     PRINT BUDGET
PERIOD     1 STEP   314
     SAVE HEAD
     SAVE DRAWDOWN
     SAVE BUDGET
     PRINT BUDGET
PERIOD     1 STEP   315
     SAVE HEAD
     SAVE DRAWDOWN
     SAVE BUDGET
     PRINT BUDGET
PERIOD     1 STEP   316
     SAVE HEAD
     SAVE DRAWDOWN
     SAVE BUDGET
     PRINT BUDGET
PERIOD     1 STEP   317
     SAVE HEAD
     SAVE DRAWDOWN
     SAVE BUDGET
     PRINT BUDGET
PERIOD     1 STEP   318
     SAVE HEAD
     SAVE DRAWDOWN
     SAVE BUDGET
     PRINT BUDGET
PERIOD     1 STEP   319
     SAVE HEAD
     SAVE DRAWDOWN
     SAVE BUDGET
     PRINT BUDGET