# modflow.mfn file, generated by QSWATMOD2 plugin version 2.0. - 02/04/22 14:04:21 -
# Name File for MODFLOW created on 2/4/2022 by ModelMuse Version 4.3.0.0
LIST	5011	mf_1000.lst
DATA(BINARY)	5009	mf_1000.cbc
DIS	5012	mf_1000.dis
BAS6	5013	mf_1000.bas
OC	5039	mf_1000.oc
DATA	5037	mf_1000.fhd
DATA	5038	mf_1000.fdn
NWT	5133	mf_1000.nwt
UPW	5134	mf_1000.upw
RIV	5021	mf_1000.riv
RCH	5024	mf_1000.rch
# EVT     5025    mf_1000.evt OLD
ZONE	5015	mf_1000.zon
PVAL	5052	mf_1000.pval
