 Head values for selected MODFLOW cells
  2.64346E+02  2.67372E+02  2.68048E+02
  2.64422E+02  2.67440E+02  2.68121E+02
  2.64431E+02  2.67448E+02  2.68194E+02
  2.64440E+02  2.67470E+02  2.68265E+02
  2.64442E+02  2.67473E+02  2.68335E+02
  2.64442E+02  2.67473E+02  2.68404E+02
  2.64442E+02  2.67473E+02  2.68472E+02
  2.64442E+02  2.67474E+02  2.68539E+02
  2.64442E+02  2.67474E+02  2.68604E+02
  2.64442E+02  2.67474E+02  2.68669E+02
  2.64442E+02  2.67473E+02  2.68733E+02
  2.64442E+02  2.67473E+02  2.68795E+02
  2.64442E+02  2.67473E+02  2.68856E+02
  2.64442E+02  2.67473E+02  2.68917E+02
  2.64442E+02  2.67473E+02  2.69130E+02
  2.64443E+02  2.67473E+02  2.72217E+02
  2.64446E+02  2.67480E+02  2.74070E+02
  2.64444E+02  2.67474E+02  2.75186E+02
  2.64447E+02  2.67480E+02  2.75846E+02
  2.64444E+02  2.67474E+02  2.76232E+02
  2.64447E+02  2.67479E+02  2.76454E+02
  2.64444E+02  2.67474E+02  2.76573E+02
  2.64447E+02  2.67479E+02  2.76631E+02
  2.64444E+02  2.67474E+02  2.76652E+02
  2.64447E+02  2.67479E+02  2.76651E+02
  2.64444E+02  2.67474E+02  2.76636E+02
  2.64447E+02  2.67479E+02  2.76613E+02
  2.64447E+02  2.67480E+02  2.76585E+02
  2.64444E+02  2.67474E+02  2.76553E+02
  2.64447E+02  2.67479E+02  2.76521E+02
  2.64444E+02  2.67474E+02  2.76487E+02
  2.64447E+02  2.67479E+02  2.76454E+02
  2.64444E+02  2.67474E+02  2.76419E+02
  2.64447E+02  2.67479E+02  2.76386E+02
  2.64444E+02  2.67474E+02  2.76351E+02
  2.64447E+02  2.67479E+02  2.76318E+02
  2.64444E+02  2.67473E+02  2.76284E+02
  2.64447E+02  2.67479E+02  2.76252E+02
  2.64444E+02  2.67473E+02  2.76219E+02
  2.64464E+02  2.67497E+02  2.76189E+02
  2.64447E+02  2.67476E+02  2.76156E+02
  2.64448E+02  2.67479E+02  2.76124E+02
  2.64445E+02  2.67473E+02  2.76092E+02
  2.64448E+02  2.67479E+02  2.76061E+02
  2.64445E+02  2.67473E+02  2.76030E+02
  2.64448E+02  2.67479E+02  2.75999E+02
  2.64445E+02  2.67473E+02  2.75969E+02
  2.64448E+02  2.67479E+02  2.75939E+02
  2.64445E+02  2.67473E+02  2.75909E+02
  2.64448E+02  2.67479E+02  2.75880E+02
  2.64445E+02  2.67473E+02  2.75850E+02
  2.64448E+02  2.67479E+02  2.75822E+02
  2.64445E+02  2.67473E+02  2.75793E+02
  2.64466E+02  2.67486E+02  2.81031E+02
  2.64472E+02  2.67500E+02  2.81898E+02
  2.64460E+02  2.67491E+02  2.81136E+02
  2.64453E+02  2.67482E+02  2.79944E+02
  2.64451E+02  2.67480E+02  2.78800E+02
  2.64450E+02  2.67480E+02  2.77871E+02
  2.64449E+02  2.67480E+02  2.77188E+02
  2.64449E+02  2.67480E+02  2.76661E+02
  2.64448E+02  2.67479E+02  2.76277E+02
  2.64448E+02  2.67479E+02  2.76011E+02
  2.64448E+02  2.67479E+02  2.75828E+02
  2.64448E+02  2.67479E+02  2.75700E+02
  2.64448E+02  2.67479E+02  2.75609E+02
  2.64448E+02  2.67479E+02  2.75542E+02
  2.64448E+02  2.67479E+02  2.75490E+02
  2.64448E+02  2.67479E+02  2.75449E+02
  2.64448E+02  2.67479E+02  2.75414E+02
  2.64449E+02  2.67479E+02  2.75384E+02
  2.64449E+02  2.67479E+02  2.75355E+02
  2.64501E+02  2.67510E+02  2.87557E+02
  2.64535E+02  2.67566E+02  2.90122E+02
  2.64504E+02  2.67533E+02  2.90583E+02
  2.64486E+02  2.67516E+02  2.88400E+02
  2.64469E+02  2.67501E+02  2.85529E+02
  2.64460E+02  2.67491E+02  2.82800E+02
  2.64457E+02  2.67488E+02  2.80589E+02
  2.64455E+02  2.67487E+02  2.78957E+02
  2.64451E+02  2.67481E+02  2.77787E+02
  2.64450E+02  2.67480E+02  2.76964E+02
  2.64449E+02  2.67479E+02  2.76390E+02
  2.64449E+02  2.67479E+02  2.75993E+02
  2.64449E+02  2.67479E+02  2.75726E+02
  2.64449E+02  2.67479E+02  2.75549E+02
  2.64449E+02  2.67479E+02  2.75429E+02
  2.64449E+02  2.67479E+02  2.75345E+02
  2.64449E+02  2.67479E+02  2.75285E+02
  2.64449E+02  2.67479E+02  2.75239E+02
  2.64449E+02  2.67479E+02  2.75203E+02
  2.64449E+02  2.67479E+02  2.75172E+02
  2.64449E+02  2.67479E+02  2.75146E+02
  2.64449E+02  2.67479E+02  2.75122E+02
  2.64449E+02  2.67479E+02  2.75099E+02
  2.64449E+02  2.67479E+02  2.75078E+02
  2.64449E+02  2.67479E+02  2.75057E+02
  2.64449E+02  2.67479E+02  2.75037E+02
  2.64449E+02  2.67479E+02  2.75017E+02
  2.64449E+02  2.67479E+02  2.74998E+02
  2.64449E+02  2.67479E+02  2.74978E+02
  2.64449E+02  2.67479E+02  2.74959E+02
  2.64449E+02  2.67479E+02  2.74941E+02
  2.64449E+02  2.67479E+02  2.74922E+02
  2.64449E+02  2.67479E+02  2.74904E+02
  2.64449E+02  2.67479E+02  2.74886E+02
  2.64449E+02  2.67479E+02  2.74867E+02
  2.64449E+02  2.67479E+02  2.74850E+02
  2.64449E+02  2.67479E+02  2.74832E+02
  2.64449E+02  2.67479E+02  2.74814E+02
  2.64449E+02  2.67479E+02  2.74797E+02
  2.64449E+02  2.67479E+02  2.74780E+02
  2.64449E+02  2.67479E+02  2.74762E+02
  2.64449E+02  2.67479E+02  2.74745E+02
  2.64449E+02  2.67479E+02  2.74729E+02
  2.64449E+02  2.67479E+02  2.74712E+02
  2.64449E+02  2.67479E+02  2.74695E+02
  2.64449E+02  2.67479E+02  2.74679E+02
  2.64449E+02  2.67479E+02  2.74663E+02
  2.64449E+02  2.67479E+02  2.74647E+02
  2.64449E+02  2.67479E+02  2.74631E+02
  2.64449E+02  2.67479E+02  2.74615E+02
  2.64449E+02  2.67479E+02  2.74599E+02
  2.64449E+02  2.67479E+02  2.74583E+02
  2.64449E+02  2.67478E+02  2.74568E+02
  2.64449E+02  2.67478E+02  2.74553E+02
  2.64449E+02  2.67478E+02  2.74537E+02
  2.64449E+02  2.67478E+02  2.74522E+02
  2.64449E+02  2.67478E+02  2.74507E+02
  2.64449E+02  2.67478E+02  2.74493E+02
  2.64448E+02  2.67478E+02  2.74478E+02
  2.64448E+02  2.67478E+02  2.74463E+02
  2.64448E+02  2.67478E+02  2.74449E+02
  2.64448E+02  2.67478E+02  2.74435E+02
  2.64448E+02  2.67478E+02  2.74420E+02
  2.64448E+02  2.67478E+02  2.74406E+02
  2.64448E+02  2.67478E+02  2.74392E+02
  2.64448E+02  2.67478E+02  2.74379E+02
  2.64448E+02  2.67478E+02  2.74365E+02
  2.64448E+02  2.67478E+02  2.74351E+02
  2.64448E+02  2.67478E+02  2.74338E+02
  2.64448E+02  2.67478E+02  2.74324E+02
  2.64448E+02  2.67478E+02  2.74311E+02
  2.64448E+02  2.67478E+02  2.74298E+02
  2.64448E+02  2.67478E+02  2.74285E+02
  2.64448E+02  2.67478E+02  2.74272E+02
  2.64448E+02  2.67478E+02  2.74259E+02
  2.64448E+02  2.67478E+02  2.74246E+02
  2.64448E+02  2.67478E+02  2.74233E+02
  2.64448E+02  2.67478E+02  2.74221E+02
  2.64448E+02  2.67478E+02  2.74209E+02
  2.64448E+02  2.67478E+02  2.74196E+02
  2.64448E+02  2.67478E+02  2.74184E+02
  2.64448E+02  2.67478E+02  2.74172E+02
  2.64448E+02  2.67478E+02  2.74160E+02
  2.64448E+02  2.67478E+02  2.74148E+02
  2.64448E+02  2.67478E+02  2.74136E+02
  2.64448E+02  2.67478E+02  2.74124E+02
  2.64448E+02  2.67478E+02  2.74112E+02
  2.64448E+02  2.67478E+02  2.74101E+02
  2.64448E+02  2.67478E+02  2.74089E+02
  2.64448E+02  2.67478E+02  2.74078E+02
  2.64448E+02  2.67478E+02  2.74067E+02
  2.64448E+02  2.67478E+02  2.74057E+02
  2.64448E+02  2.67478E+02  2.74046E+02
  2.64448E+02  2.67478E+02  2.74036E+02
  2.64448E+02  2.67478E+02  2.74026E+02
  2.64448E+02  2.67478E+02  2.74016E+02
  2.64448E+02  2.67478E+02  2.74006E+02
  2.64448E+02  2.67478E+02  2.73996E+02
  2.64448E+02  2.67478E+02  2.73986E+02
  2.64448E+02  2.67478E+02  2.73977E+02
  2.64448E+02  2.67478E+02  2.73967E+02
  2.64448E+02  2.67478E+02  2.73957E+02
  2.64448E+02  2.67478E+02  2.73948E+02
  2.64448E+02  2.67478E+02  2.73939E+02
  2.64448E+02  2.67478E+02  2.73929E+02
  2.64448E+02  2.67478E+02  2.73920E+02
  2.64448E+02  2.67478E+02  2.73911E+02
  2.64448E+02  2.67478E+02  2.73902E+02
  2.64448E+02  2.67478E+02  2.73893E+02
  2.64448E+02  2.67478E+02  2.73884E+02
  2.64448E+02  2.67478E+02  2.73875E+02
  2.64448E+02  2.67478E+02  2.73866E+02
  2.64448E+02  2.67478E+02  2.73857E+02
  2.64448E+02  2.67478E+02  2.73849E+02
  2.64448E+02  2.67478E+02  2.73840E+02
  2.64448E+02  2.67478E+02  2.73831E+02
  2.64448E+02  2.67478E+02  2.73823E+02
  2.64448E+02  2.67478E+02  2.73815E+02
  2.64448E+02  2.67478E+02  2.73806E+02
  2.64448E+02  2.67478E+02  2.73798E+02
  2.64448E+02  2.67478E+02  2.73790E+02
  2.64448E+02  2.67478E+02  2.73782E+02
  2.64448E+02  2.67478E+02  2.73774E+02
  2.64448E+02  2.67478E+02  2.73766E+02
  2.64448E+02  2.67478E+02  2.73758E+02
  2.64448E+02  2.67478E+02  2.73750E+02
  2.64448E+02  2.67478E+02  2.73742E+02
  2.64448E+02  2.67478E+02  2.73734E+02
  2.64448E+02  2.67478E+02  2.73726E+02
  2.64448E+02  2.67478E+02  2.73719E+02
  2.64448E+02  2.67478E+02  2.73711E+02
  2.64448E+02  2.67478E+02  2.73704E+02
  2.64448E+02  2.67478E+02  2.73696E+02
  2.64448E+02  2.67478E+02  2.73689E+02
  2.64448E+02  2.67478E+02  2.73681E+02
  2.64448E+02  2.67478E+02  2.73674E+02
  2.64448E+02  2.67478E+02  2.73667E+02
  2.64448E+02  2.67478E+02  2.73659E+02
  2.64448E+02  2.67478E+02  2.73652E+02
  2.64448E+02  2.67478E+02  2.73645E+02
  2.64448E+02  2.67478E+02  2.73638E+02
  2.64448E+02  2.67478E+02  2.73631E+02
  2.64448E+02  2.67478E+02  2.73624E+02
  2.64448E+02  2.67478E+02  2.73617E+02
  2.64448E+02  2.67478E+02  2.73610E+02
  2.64448E+02  2.67478E+02  2.73604E+02
  2.64445E+02  2.67471E+02  2.73596E+02
  2.64448E+02  2.67477E+02  2.73589E+02
  2.64445E+02  2.67471E+02  2.73582E+02
  2.64448E+02  2.67477E+02  2.73576E+02
  2.64445E+02  2.67471E+02  2.73569E+02
  2.64448E+02  2.67477E+02  2.73563E+02
  2.64445E+02  2.67471E+02  2.73556E+02
  2.64448E+02  2.67477E+02  2.73550E+02
  2.64445E+02  2.67471E+02  2.73543E+02
  2.64448E+02  2.67477E+02  2.73537E+02
  2.64445E+02  2.67471E+02  2.73530E+02
  2.64448E+02  2.67477E+02  2.73524E+02
  2.64445E+02  2.67471E+02  2.73518E+02
  2.64448E+02  2.67477E+02  2.73512E+02
  2.64445E+02  2.67471E+02  2.73506E+02
  2.64448E+02  2.67477E+02  2.73500E+02
  2.64445E+02  2.67471E+02  2.73494E+02
  2.64448E+02  2.67477E+02  2.73488E+02
  2.64445E+02  2.67471E+02  2.73482E+02
  2.64448E+02  2.67477E+02  2.73476E+02
  2.64445E+02  2.67471E+02  2.73470E+02
  2.64448E+02  2.67477E+02  2.73465E+02
  2.64445E+02  2.67471E+02  2.73459E+02
  2.64448E+02  2.67476E+02  2.73454E+02
  2.64445E+02  2.67471E+02  2.73449E+02
  2.64448E+02  2.67476E+02  2.73444E+02
  2.64445E+02  2.67471E+02  2.73438E+02
  2.64448E+02  2.67476E+02  2.73433E+02
  2.64445E+02  2.67471E+02  2.73428E+02
  2.64448E+02  2.67476E+02  2.73423E+02
  2.64445E+02  2.67471E+02  2.73418E+02
  2.64448E+02  2.67476E+02  2.73413E+02
  2.64445E+02  2.67471E+02  2.73408E+02
  2.64448E+02  2.67476E+02  2.73403E+02
  2.64445E+02  2.67471E+02  2.73398E+02
  2.64448E+02  2.67476E+02  2.73393E+02
  2.64445E+02  2.67471E+02  2.73388E+02
  2.64448E+02  2.67476E+02  2.73384E+02
  2.64445E+02  2.67471E+02  2.73379E+02
  2.64448E+02  2.67476E+02  2.73374E+02
  2.64445E+02  2.67471E+02  2.73369E+02
  2.64448E+02  2.67476E+02  2.73365E+02
  2.64445E+02  2.67471E+02  2.73360E+02
  2.64448E+02  2.67476E+02  2.73356E+02
  2.64445E+02  2.67471E+02  2.73351E+02
  2.64448E+02  2.67476E+02  2.73346E+02
  2.64445E+02  2.67471E+02  2.73342E+02
  2.64448E+02  2.67476E+02  2.73337E+02
  2.64445E+02  2.67471E+02  2.73333E+02
  2.64448E+02  2.67476E+02  2.73328E+02
  2.64445E+02  2.67471E+02  2.73324E+02
  2.64448E+02  2.67476E+02  2.73320E+02
  2.64445E+02  2.67471E+02  2.73315E+02
  2.64448E+02  2.67476E+02  2.73311E+02
  2.64448E+02  2.67477E+02  2.73307E+02
  2.64448E+02  2.67477E+02  2.73303E+02
  2.64448E+02  2.67477E+02  2.73299E+02
  2.64448E+02  2.67477E+02  2.73294E+02
  2.64448E+02  2.67477E+02  2.73290E+02
  2.64448E+02  2.67477E+02  2.73286E+02
  2.64448E+02  2.67477E+02  2.73282E+02
  2.64448E+02  2.67477E+02  2.73278E+02
  2.64448E+02  2.67477E+02  2.73274E+02
  2.64448E+02  2.67477E+02  2.73269E+02
  2.64448E+02  2.67477E+02  2.73265E+02
  2.64448E+02  2.67477E+02  2.73261E+02
  2.64448E+02  2.67477E+02  2.73257E+02
  2.64448E+02  2.67477E+02  2.73253E+02
  2.64474E+02  2.67483E+02  2.81559E+02
  2.64590E+02  2.67614E+02  2.94986E+02
  2.64546E+02  2.67574E+02  2.96717E+02
  2.64503E+02  2.67533E+02  2.95487E+02
  2.64500E+02  2.67525E+02  2.95503E+02
  2.64564E+02  2.67573E+02  3.10451E+02
  2.64595E+02  2.67629E+02  3.10884E+02
  2.64534E+02  2.67567E+02  3.05728E+02
  2.64501E+02  2.67534E+02  2.99225E+02
  2.64483E+02  2.67512E+02  2.93132E+02
  2.64476E+02  2.67506E+02  2.88039E+02
  2.64469E+02  2.67497E+02  2.84022E+02
  2.64466E+02  2.67496E+02  2.80958E+02
  2.64462E+02  2.67489E+02  2.78821E+02
  2.64460E+02  2.67487E+02  2.77357E+02
  2.64460E+02  2.67487E+02  2.76364E+02
  2.64459E+02  2.67487E+02  2.75694E+02
  2.64459E+02  2.67487E+02  2.75245E+02
  2.64453E+02  2.67485E+02  2.74946E+02
  2.64452E+02  2.67485E+02  2.74747E+02
  2.64449E+02  2.67479E+02  2.74616E+02
  2.64451E+02  2.67484E+02  2.74530E+02
  2.64449E+02  2.67479E+02  2.74473E+02
  2.64449E+02  2.67478E+02  2.74436E+02
  2.64448E+02  2.67478E+02  2.74412E+02
  2.64448E+02  2.67478E+02  2.74398E+02
  2.64448E+02  2.67478E+02  2.74389E+02
  2.64448E+02  2.67478E+02  2.74385E+02
  2.64448E+02  2.67478E+02  2.74383E+02
  2.64448E+02  2.67478E+02  2.74384E+02
  2.64448E+02  2.67478E+02  2.74385E+02
  2.64448E+02  2.67478E+02  2.74387E+02
  2.64448E+02  2.67478E+02  2.74389E+02
  2.64448E+02  2.67478E+02  2.74392E+02
  2.64448E+02  2.67478E+02  2.74394E+02
  2.64448E+02  2.67478E+02  2.74396E+02
  2.64449E+02  2.67478E+02  2.74398E+02
  2.64449E+02  2.67478E+02  2.74400E+02
  2.64449E+02  2.67478E+02  2.74402E+02
  2.64449E+02  2.67478E+02  2.74403E+02
  2.64448E+02  2.67478E+02  2.74404E+02
  2.64459E+02  2.67479E+02  2.75159E+02
  2.64475E+02  2.67500E+02  2.76027E+02
  2.64505E+02  2.67517E+02  2.85111E+02
  2.64600E+02  2.67600E+02  3.08172E+02
  2.64657E+02  2.67693E+02  3.12089E+02
  2.64566E+02  2.67601E+02  3.08192E+02
  2.64528E+02  2.67559E+02  3.02973E+02
  2.64505E+02  2.67533E+02  2.97004E+02
  2.64486E+02  2.67518E+02  2.91583E+02
  2.64479E+02  2.67513E+02  2.87122E+02
  2.64473E+02  2.67505E+02  2.83686E+02
  2.64470E+02  2.67503E+02  2.81324E+02
  2.64466E+02  2.67497E+02  2.79730E+02
  2.64464E+02  2.67496E+02  2.78673E+02
  2.64463E+02  2.67495E+02  2.77983E+02
  2.64463E+02  2.67495E+02  2.77541E+02
  2.64593E+02  2.67596E+02  3.14439E+02
  2.64818E+02  2.67871E+02  3.27815E+02
  2.64644E+02  2.67687E+02  3.26832E+02
  2.64567E+02  2.67606E+02  3.23852E+02
  2.64527E+02  2.67560E+02  3.18126E+02
  2.64506E+02  2.67534E+02  3.12374E+02
  2.64500E+02  2.67530E+02  3.11600E+02
  2.64492E+02  2.67522E+02  3.08883E+02
  2.64486E+02  2.67517E+02  3.05708E+02
  2.64479E+02  2.67508E+02  3.02751E+02
  2.64476E+02  2.67506E+02  3.00219E+02
  2.64474E+02  2.67505E+02  2.98121E+02
  2.64469E+02  2.67499E+02  2.96398E+02
  2.64468E+02  2.67498E+02  2.94977E+02
  2.64467E+02  2.67497E+02  2.93793E+02
  2.64467E+02  2.67497E+02  2.92791E+02
  2.64466E+02  2.67497E+02  2.91929E+02
  2.64466E+02  2.67498E+02  2.91176E+02
  2.64466E+02  2.67498E+02  2.90509E+02
  2.64457E+02  2.67490E+02  2.89908E+02
  2.64455E+02  2.67488E+02  2.89362E+02
  2.64455E+02  2.67488E+02  2.88862E+02
  2.64455E+02  2.67488E+02  2.88399E+02
  2.64455E+02  2.67488E+02  2.87967E+02
  2.64455E+02  2.67488E+02  2.87564E+02
  2.64454E+02  2.67488E+02  2.87184E+02
  2.64454E+02  2.67488E+02  2.86823E+02
  2.64454E+02  2.67489E+02  2.86482E+02
  2.64454E+02  2.67489E+02  2.86157E+02
  2.64454E+02  2.67489E+02  2.85848E+02
  2.64454E+02  2.67489E+02  2.85551E+02
  2.64454E+02  2.67489E+02  2.85267E+02
  2.64454E+02  2.67489E+02  2.84995E+02
  2.64454E+02  2.67489E+02  2.84732E+02
  2.64454E+02  2.67489E+02  2.84480E+02
  2.64454E+02  2.67489E+02  2.84237E+02
  2.64451E+02  2.67482E+02  2.84002E+02
  2.64453E+02  2.67488E+02  2.83775E+02
  2.64454E+02  2.67489E+02  2.83556E+02
  2.64451E+02  2.67482E+02  2.83344E+02
  2.64453E+02  2.67488E+02  2.83139E+02
  2.64451E+02  2.67482E+02  2.82940E+02
  2.64450E+02  2.67482E+02  2.82746E+02
  2.64450E+02  2.67481E+02  2.82558E+02
  2.64450E+02  2.67481E+02  2.82375E+02
  2.64450E+02  2.67481E+02  2.82197E+02
  2.64450E+02  2.67481E+02  2.82024E+02
  2.64450E+02  2.67481E+02  2.81857E+02
  2.64450E+02  2.67481E+02  2.81695E+02
  2.64450E+02  2.67481E+02  2.81535E+02
  2.64450E+02  2.67481E+02  2.81380E+02
  2.64450E+02  2.67481E+02  2.81229E+02
  2.64450E+02  2.67481E+02  2.81082E+02
  2.64450E+02  2.67481E+02  2.80938E+02
  2.64450E+02  2.67481E+02  2.80797E+02
  2.64450E+02  2.67481E+02  2.80660E+02
  2.64461E+02  2.67483E+02  2.83718E+02
  2.64558E+02  2.67600E+02  2.84165E+02
  2.64500E+02  2.67537E+02  2.83640E+02
  2.64473E+02  2.67511E+02  2.82859E+02
  2.64463E+02  2.67494E+02  2.82104E+02
  2.64455E+02  2.67490E+02  2.81462E+02
  2.64451E+02  2.67483E+02  2.80944E+02
  2.64450E+02  2.67482E+02  2.80533E+02
  2.64450E+02  2.67481E+02  2.80207E+02
  2.64450E+02  2.67481E+02  2.79943E+02
  2.64450E+02  2.67481E+02  2.79724E+02
  2.64450E+02  2.67481E+02  2.79540E+02
  2.64450E+02  2.67481E+02  2.79378E+02
  2.64449E+02  2.67481E+02  2.79235E+02
  2.64449E+02  2.67481E+02  2.79111E+02
  2.64449E+02  2.67481E+02  2.79001E+02
  2.64449E+02  2.67481E+02  2.78902E+02
  2.64449E+02  2.67481E+02  2.78810E+02
  2.64449E+02  2.67481E+02  2.78723E+02
  2.64449E+02  2.67481E+02  2.78640E+02
  2.64449E+02  2.67481E+02  2.78561E+02
  2.64449E+02  2.67481E+02  2.78484E+02
  2.64449E+02  2.67481E+02  2.78410E+02
  2.64449E+02  2.67481E+02  2.78338E+02
  2.64449E+02  2.67481E+02  2.78286E+02
  2.64449E+02  2.67481E+02  2.78249E+02
  2.64449E+02  2.67481E+02  2.78221E+02
  2.64449E+02  2.67481E+02  2.78200E+02
  2.64449E+02  2.67481E+02  2.78181E+02
  2.64449E+02  2.67481E+02  2.78163E+02
  2.64449E+02  2.67481E+02  2.78147E+02
  2.64449E+02  2.67481E+02  2.78131E+02
  2.64449E+02  2.67481E+02  2.78115E+02
  2.64449E+02  2.67481E+02  2.78099E+02
  2.64449E+02  2.67481E+02  2.78082E+02
  2.64449E+02  2.67481E+02  2.78066E+02
  2.64449E+02  2.67481E+02  2.78049E+02
  2.64449E+02  2.67481E+02  2.78032E+02
  2.64449E+02  2.67481E+02  2.78015E+02
  2.64449E+02  2.67481E+02  2.77997E+02
  2.64449E+02  2.67481E+02  2.77979E+02
  2.64449E+02  2.67481E+02  2.77961E+02
  2.64449E+02  2.67481E+02  2.77943E+02
  2.64449E+02  2.67481E+02  2.77925E+02
  2.64449E+02  2.67481E+02  2.77906E+02
  2.64449E+02  2.67481E+02  2.77887E+02
  2.64449E+02  2.67481E+02  2.77868E+02
  2.64449E+02  2.67481E+02  2.77849E+02
  2.64449E+02  2.67481E+02  2.77830E+02
  2.64449E+02  2.67481E+02  2.77810E+02
  2.64449E+02  2.67481E+02  2.77791E+02
  2.64449E+02  2.67480E+02  2.77771E+02
  2.64449E+02  2.67480E+02  2.77751E+02
  2.64449E+02  2.67480E+02  2.77731E+02
  2.64449E+02  2.67480E+02  2.77711E+02
  2.64449E+02  2.67480E+02  2.77691E+02
  2.64449E+02  2.67480E+02  2.77671E+02
  2.64449E+02  2.67480E+02  2.77651E+02
  2.64449E+02  2.67480E+02  2.77630E+02
  2.64449E+02  2.67480E+02  2.77610E+02
  2.64449E+02  2.67480E+02  2.77589E+02
  2.64449E+02  2.67480E+02  2.77569E+02
  2.64449E+02  2.67480E+02  2.77548E+02
  2.64449E+02  2.67480E+02  2.77528E+02
  2.64449E+02  2.67480E+02  2.77507E+02
  2.64449E+02  2.67480E+02  2.77486E+02
  2.64486E+02  2.67520E+02  2.77470E+02
  2.64463E+02  2.67494E+02  2.77449E+02
  2.64454E+02  2.67488E+02  2.77428E+02
  2.64450E+02  2.67481E+02  2.77406E+02
  2.64449E+02  2.67480E+02  2.77384E+02
  2.64449E+02  2.67480E+02  2.77363E+02
  2.64449E+02  2.67480E+02  2.77342E+02
  2.64449E+02  2.67480E+02  2.77321E+02
  2.64449E+02  2.67480E+02  2.77300E+02
  2.64449E+02  2.67480E+02  2.77280E+02
  2.64449E+02  2.67480E+02  2.77259E+02
  2.64449E+02  2.67480E+02  2.77239E+02
  2.64449E+02  2.67480E+02  2.77218E+02
  2.64449E+02  2.67480E+02  2.77198E+02
  2.64449E+02  2.67480E+02  2.77177E+02
  2.64449E+02  2.67480E+02  2.77157E+02
  2.64449E+02  2.67480E+02  2.77137E+02
  2.64449E+02  2.67480E+02  2.77117E+02
  2.64449E+02  2.67480E+02  2.77096E+02
  2.64449E+02  2.67480E+02  2.77076E+02
  2.64449E+02  2.67480E+02  2.77056E+02
  2.64460E+02  2.67495E+02  2.77038E+02
  2.64451E+02  2.67482E+02  2.77018E+02
  2.64449E+02  2.67480E+02  2.76997E+02
  2.64449E+02  2.67480E+02  2.76977E+02
  2.64449E+02  2.67480E+02  2.76957E+02
  2.64449E+02  2.67480E+02  2.76937E+02
  2.64449E+02  2.67480E+02  2.76917E+02
  2.64449E+02  2.67480E+02  2.76898E+02
  2.64450E+02  2.67480E+02  2.77209E+02
  2.64475E+02  2.67517E+02  2.77250E+02
  2.64462E+02  2.67493E+02  2.77185E+02
  2.64454E+02  2.67488E+02  2.77093E+02
  2.64450E+02  2.67481E+02  2.77004E+02
  2.64449E+02  2.67480E+02  2.76928E+02
  2.64449E+02  2.67480E+02  2.76867E+02
  2.64449E+02  2.67480E+02  2.76818E+02
  2.64449E+02  2.67480E+02  2.76779E+02
  2.64458E+02  2.67488E+02  2.76747E+02
  2.64450E+02  2.67481E+02  2.76719E+02
  2.64449E+02  2.67480E+02  2.76694E+02
  2.64449E+02  2.67480E+02  2.76672E+02
  2.64449E+02  2.67479E+02  2.76651E+02
  2.64449E+02  2.67479E+02  2.76631E+02
  2.64449E+02  2.67479E+02  2.76612E+02
  2.64449E+02  2.67479E+02  2.76593E+02
  2.64449E+02  2.67479E+02  2.76575E+02
  2.64449E+02  2.67479E+02  2.76557E+02
  2.64449E+02  2.67479E+02  2.76540E+02
  2.64449E+02  2.67479E+02  2.76522E+02
  2.64449E+02  2.67479E+02  2.76505E+02
  2.64460E+02  2.67494E+02  2.76489E+02
  2.64450E+02  2.67481E+02  2.76472E+02
  2.64450E+02  2.67480E+02  2.76746E+02
  2.64459E+02  2.67488E+02  2.76924E+02
  2.64466E+02  2.67486E+02  2.80925E+02
  2.64488E+02  2.67506E+02  2.84988E+02
  2.64489E+02  2.67507E+02  2.86907E+02
  2.64501E+02  2.67517E+02  2.89813E+02
  2.64513E+02  2.67524E+02  2.93382E+02
  2.64500E+02  2.67523E+02  2.92021E+02
  2.64485E+02  2.67512E+02  2.89025E+02
  2.64478E+02  2.67507E+02  2.85846E+02
  2.64470E+02  2.67499E+02  2.83103E+02
  2.64467E+02  2.67497E+02  2.81058E+02
  2.64462E+02  2.67490E+02  2.79589E+02
  2.64461E+02  2.67489E+02  2.78559E+02
  2.64454E+02  2.67487E+02  2.77848E+02
  2.64459E+02  2.67488E+02  2.77362E+02
  2.64454E+02  2.67487E+02  2.77030E+02
  2.64464E+02  2.67502E+02  2.76806E+02
  2.64460E+02  2.67491E+02  2.76652E+02
  2.64453E+02  2.67487E+02  2.76545E+02
  2.64452E+02  2.67487E+02  2.76469E+02
  2.64452E+02  2.67487E+02  2.76414E+02
  2.64449E+02  2.67480E+02  2.76373E+02
  2.64452E+02  2.67486E+02  2.76342E+02
  2.64449E+02  2.67480E+02  2.76316E+02
  2.64449E+02  2.67479E+02  2.76294E+02
  2.64449E+02  2.67479E+02  2.76275E+02
  2.64449E+02  2.67479E+02  2.76258E+02
  2.64449E+02  2.67479E+02  2.76242E+02
  2.64449E+02  2.67479E+02  2.76226E+02
  2.64449E+02  2.67479E+02  2.76211E+02
  2.64449E+02  2.67479E+02  2.76197E+02
  2.64449E+02  2.67479E+02  2.76182E+02
  2.64449E+02  2.67479E+02  2.76168E+02
  2.64449E+02  2.67479E+02  2.76154E+02
  2.64449E+02  2.67479E+02  2.76140E+02
  2.64449E+02  2.67479E+02  2.76126E+02
  2.64449E+02  2.67479E+02  2.76112E+02
  2.64449E+02  2.67479E+02  2.76098E+02
  2.64449E+02  2.67479E+02  2.76083E+02
  2.64449E+02  2.67479E+02  2.76069E+02
  2.64449E+02  2.67479E+02  2.76055E+02
  2.64449E+02  2.67479E+02  2.76041E+02
  2.64449E+02  2.67479E+02  2.76027E+02
  2.64449E+02  2.67479E+02  2.76013E+02
  2.64449E+02  2.67479E+02  2.75999E+02
  2.64449E+02  2.67479E+02  2.75985E+02
  2.64449E+02  2.67479E+02  2.75971E+02
  2.64449E+02  2.67479E+02  2.75957E+02
  2.64449E+02  2.67479E+02  2.75943E+02
  2.64449E+02  2.67479E+02  2.75929E+02
  2.64449E+02  2.67479E+02  2.75915E+02
  2.64449E+02  2.67479E+02  2.75901E+02
  2.64449E+02  2.67479E+02  2.75888E+02
  2.64449E+02  2.67479E+02  2.75874E+02
  2.64449E+02  2.67479E+02  2.75860E+02
  2.64449E+02  2.67479E+02  2.75846E+02
  2.64449E+02  2.67479E+02  2.75832E+02
  2.64449E+02  2.67479E+02  2.75818E+02
  2.64449E+02  2.67479E+02  2.75805E+02
  2.64449E+02  2.67479E+02  2.75791E+02
  2.64449E+02  2.67479E+02  2.75777E+02
  2.64449E+02  2.67479E+02  2.75764E+02
  2.64449E+02  2.67479E+02  2.75750E+02
  2.64449E+02  2.67479E+02  2.75736E+02
  2.64449E+02  2.67479E+02  2.75723E+02
  2.64449E+02  2.67479E+02  2.75709E+02
  2.64449E+02  2.67479E+02  2.75696E+02
  2.64449E+02  2.67479E+02  2.75682E+02
  2.64449E+02  2.67479E+02  2.75872E+02
  2.64497E+02  2.67535E+02  2.75900E+02
  2.64467E+02  2.67502E+02  2.75860E+02
  2.64460E+02  2.67490E+02  2.75802E+02
  2.64450E+02  2.67480E+02  2.75744E+02
  2.64449E+02  2.67479E+02  2.75695E+02
  2.64449E+02  2.67479E+02  2.75655E+02
  2.64449E+02  2.67479E+02  2.75622E+02
  2.64449E+02  2.67479E+02  2.75595E+02
  2.64449E+02  2.67479E+02  2.75572E+02
  2.64449E+02  2.67479E+02  2.75553E+02
  2.64449E+02  2.67479E+02  2.75535E+02
  2.64449E+02  2.67479E+02  2.75520E+02
  2.64449E+02  2.67479E+02  2.75505E+02
  2.64449E+02  2.67479E+02  2.75491E+02
  2.64449E+02  2.67479E+02  2.75477E+02
  2.64449E+02  2.67479E+02  2.75464E+02
  2.64449E+02  2.67479E+02  2.75451E+02
  2.64449E+02  2.67479E+02  2.75438E+02
  2.64449E+02  2.67479E+02  2.75425E+02
  2.64449E+02  2.67479E+02  2.75413E+02
  2.64507E+02  2.67509E+02  2.92409E+02
  2.64659E+02  2.67682E+02  3.05590E+02
  2.64602E+02  2.67623E+02  3.12085E+02
  2.64544E+02  2.67571E+02  3.09177E+02
  2.64508E+02  2.67537E+02  3.03165E+02
  2.64512E+02  2.67535E+02  3.01408E+02
  2.64539E+02  2.67556E+02  3.06524E+02
  2.64551E+02  2.67575E+02  3.08391E+02
  2.64542E+02  2.67564E+02  3.07732E+02
  2.64521E+02  2.67549E+02  3.02902E+02
  2.64510E+02  2.67537E+02  2.98472E+02
  2.64490E+02  2.67522E+02  2.93538E+02
  2.64496E+02  2.67525E+02  2.92020E+02
  2.64507E+02  2.67535E+02  2.93674E+02
  2.64498E+02  2.67533E+02  2.92031E+02
  2.64486E+02  2.67521E+02  2.90030E+02
  2.64480E+02  2.67516E+02  2.88376E+02
  2.64473E+02  2.67507E+02  2.87126E+02
  2.64471E+02  2.67506E+02  2.86218E+02
  2.64467E+02  2.67499E+02  2.85577E+02
  2.64495E+02  2.67517E+02  2.91660E+02
  2.64508E+02  2.67537E+02  2.94985E+02
  2.64491E+02  2.67524E+02  2.95275E+02
  2.64483E+02  2.67518E+02  2.94380E+02
  2.64475E+02  2.67509E+02  2.93142E+02
  2.64472E+02  2.67507E+02  2.91907E+02
  2.64468E+02  2.67500E+02  2.90797E+02
  2.64466E+02  2.67498E+02  2.89837E+02
  2.64466E+02  2.67498E+02  2.89017E+02
  2.64465E+02  2.67498E+02  2.88316E+02
  2.64465E+02  2.67498E+02  2.87710E+02
  2.64462E+02  2.67492E+02  2.87179E+02
  2.64455E+02  2.67489E+02  2.86709E+02
  2.64454E+02  2.67489E+02  2.86287E+02
  2.64454E+02  2.67489E+02  2.85904E+02
  2.64454E+02  2.67489E+02  2.85554E+02
  2.64460E+02  2.67490E+02  2.85231E+02
  2.64455E+02  2.67489E+02  2.84929E+02
  2.64454E+02  2.67489E+02  2.84647E+02
  2.64454E+02  2.67489E+02  2.84380E+02
  2.64454E+02  2.67489E+02  2.84128E+02
  2.64509E+02  2.67514E+02  2.96182E+02
  2.64590E+02  2.67628E+02  2.98253E+02
  2.64526E+02  2.67561E+02  2.96614E+02
  2.64492E+02  2.67531E+02  2.93977E+02
  2.64477E+02  2.67512E+02  2.91407E+02
  2.64470E+02  2.67502E+02  2.89244E+02
  2.64467E+02  2.67500E+02  2.87533E+02
  2.64466E+02  2.67499E+02  2.86214E+02
  2.64462E+02  2.67493E+02  2.85202E+02
  2.64461E+02  2.67492E+02  2.84421E+02
  2.64455E+02  2.67490E+02  2.83810E+02
  2.64454E+02  2.67489E+02  2.83320E+02
  2.64454E+02  2.67489E+02  2.82919E+02
  2.64453E+02  2.67489E+02  2.82583E+02
  2.64453E+02  2.67489E+02  2.82293E+02
  2.64453E+02  2.67489E+02  2.82038E+02
  2.64453E+02  2.67489E+02  2.81810E+02
  2.64453E+02  2.67489E+02  2.81603E+02
  2.64453E+02  2.67489E+02  2.81412E+02
  2.64453E+02  2.67489E+02  2.81235E+02
  2.64453E+02  2.67489E+02  2.81068E+02
  2.64453E+02  2.67489E+02  2.80910E+02
  2.64450E+02  2.67483E+02  2.80759E+02
  2.64456E+02  2.67488E+02  2.81660E+02
  2.64524E+02  2.67567E+02  2.81717E+02
  2.64484E+02  2.67523E+02  2.81456E+02
  2.64467E+02  2.67502E+02  2.81112E+02
  2.64455E+02  2.67491E+02  2.80779E+02
  2.64453E+02  2.67489E+02  2.80487E+02
  2.64453E+02  2.67489E+02  2.80239E+02
  2.64454E+02  2.67489E+02  2.80395E+02
  2.64462E+02  2.67492E+02  2.82403E+02
  2.64459E+02  2.67491E+02  2.82573E+02
  2.64457E+02  2.67490E+02  2.82248E+02
  2.64455E+02  2.67490E+02  2.81638E+02
  2.64454E+02  2.67489E+02  2.81017E+02
  2.64454E+02  2.67489E+02  2.80479E+02
  2.64450E+02  2.67483E+02  2.80040E+02
  2.64453E+02  2.67488E+02  2.79690E+02
  2.64450E+02  2.67482E+02  2.79410E+02
  2.64449E+02  2.67482E+02  2.79198E+02
  2.64449E+02  2.67481E+02  2.79031E+02
  2.64449E+02  2.67481E+02  2.78895E+02
  2.64449E+02  2.67481E+02  2.78779E+02
  2.64525E+02  2.67526E+02  2.93384E+02
  2.64594E+02  2.67627E+02  2.96448E+02
  2.64526E+02  2.67562E+02  2.94828E+02
  2.64495E+02  2.67533E+02  2.91706E+02
  2.64482E+02  2.67520E+02  2.88652E+02
  2.64474E+02  2.67509E+02  2.86148E+02
  2.64468E+02  2.67501E+02  2.84211E+02
  2.64466E+02  2.67499E+02  2.82755E+02
  2.64465E+02  2.67499E+02  2.81670E+02
  2.64461E+02  2.67492E+02  2.80861E+02
  2.64455E+02  2.67489E+02  2.80251E+02
  2.64453E+02  2.67489E+02  2.79784E+02
  2.64453E+02  2.67489E+02  2.79421E+02
  2.64453E+02  2.67489E+02  2.79143E+02
  2.64453E+02  2.67489E+02  2.78929E+02
  2.64453E+02  2.67489E+02  2.78759E+02
  2.64453E+02  2.67489E+02  2.78618E+02
  2.64453E+02  2.67489E+02  2.78498E+02
  2.64453E+02  2.67489E+02  2.78415E+02
  2.64453E+02  2.67489E+02  2.78360E+02
  2.64452E+02  2.67489E+02  2.78322E+02
  2.64452E+02  2.67489E+02  2.78293E+02
  2.64450E+02  2.67482E+02  2.78269E+02
  2.64500E+02  2.67515E+02  2.88638E+02
  2.64542E+02  2.67577E+02  2.91582E+02
  2.64506E+02  2.67540E+02  2.91406E+02
  2.64486E+02  2.67523E+02  2.90146E+02
  2.64540E+02  2.67561E+02  3.03825E+02
  2.64599E+02  2.67638E+02  3.18695E+02
  2.64552E+02  2.67598E+02  3.22243E+02
  2.64526E+02  2.67574E+02  3.21010E+02
  2.64504E+02  2.67557E+02  3.18178E+02
  2.64492E+02  2.67544E+02  3.15071E+02
  2.64486E+02  2.67539E+02  3.12295E+02
  2.64480E+02  2.67530E+02  3.09924E+02
  2.64477E+02  2.67527E+02  3.07861E+02
  2.64472E+02  2.67519E+02  3.06038E+02
  2.64470E+02  2.67517E+02  3.04409E+02
  2.64469E+02  2.67516E+02  3.02941E+02
  2.64469E+02  2.67514E+02  3.01609E+02
  2.64468E+02  2.67514E+02  3.00394E+02
  2.64462E+02  2.67511E+02  2.99280E+02
  2.64461E+02  2.67510E+02  2.98254E+02
  2.64460E+02  2.67509E+02  2.97305E+02
  2.64457E+02  2.67502E+02  2.96424E+02
  2.64456E+02  2.67501E+02  2.95604E+02
  2.64465E+02  2.67509E+02  2.94839E+02
  2.64457E+02  2.67501E+02  2.94120E+02
  2.64456E+02  2.67499E+02  2.93444E+02
  2.64456E+02  2.67498E+02  2.92803E+02
  2.64455E+02  2.67498E+02  2.92198E+02
  2.64455E+02  2.67497E+02  2.91625E+02
  2.64455E+02  2.67497E+02  2.91081E+02
  2.64455E+02  2.67497E+02  2.90560E+02
  2.64455E+02  2.67496E+02  2.90079E+02
  2.64455E+02  2.67496E+02  2.89629E+02