 MODFLOW River Stage (L) (for each River Cell)
 --Calculated from SWAT Channel Depth--
 
 Day:           1
 Channel depth, Cell Row, Cell Column
  0.0000000E+00           2           6
  0.0000000E+00           2           7
  0.0000000E+00           2           8
  0.0000000E+00           3           4
  0.0000000E+00           3           5
  0.0000000E+00           3           6
  0.0000000E+00           3           8
  0.0000000E+00           3           9
  0.0000000E+00           3          10
  0.0000000E+00           4          10
  0.0000000E+00           4          11
  0.0000000E+00           4          12
  0.0000000E+00           4          19
  0.0000000E+00           4          20
  0.0000000E+00           5          12
  0.0000000E+00           5          13
  0.0000000E+00           5          14
  0.0000000E+00           5          15
  0.0000000E+00           5          16
  0.0000000E+00           5          17
  0.0000000E+00           5          18
  0.0000000E+00           5          19
  0.0000000E+00           5          20
  0.0000000E+00           5          21
  0.0000000E+00           5          22
  0.0000000E+00           5          23
  0.0000000E+00           5          24
  0.0000000E+00           5          25
  0.0000000E+00           5          26
  0.0000000E+00           6          15
  0.0000000E+00           6          16
  0.0000000E+00           6          17
  0.0000000E+00           6          23
  0.0000000E+00           6          24
  0.0000000E+00           6          25
  0.0000000E+00           6          26
  0.0000000E+00           7          14
  0.0000000E+00           7          15
  0.0000000E+00           7          22
  0.0000000E+00           7          23
  0.0000000E+00           7          26
  0.0000000E+00           7          27
  0.0000000E+00           7          28
  0.0000000E+00           8          11
  0.0000000E+00           8          12
  0.0000000E+00           8          13
  0.0000000E+00           8          14
  0.0000000E+00           8          21
  0.0000000E+00           8          22
  0.0000000E+00           8          28
  0.0000000E+00           8          29
  0.0000000E+00           8          30
  0.0000000E+00           8          31
  0.0000000E+00           9          13
  0.0000000E+00           9          14
  0.0000000E+00           9          18
  0.0000000E+00           9          19
  0.0000000E+00           9          20
  0.0000000E+00           9          21
  0.0000000E+00           9          31
  0.0000000E+00          10          18
  0.0000000E+00          10          30
  0.0000000E+00          10          31
  0.0000000E+00          10          32
  0.0000000E+00          10          33
  0.0000000E+00          10          34
  0.0000000E+00          10          35
  0.0000000E+00          11          17
  0.0000000E+00          11          28
  0.0000000E+00          11          29
  0.0000000E+00          11          32
  0.0000000E+00          11          33
  0.0000000E+00          11          34
  0.0000000E+00          11          35
  0.0000000E+00          11          36
  0.0000000E+00          12          16
  0.0000000E+00          12          17
  0.0000000E+00          12          22
  0.0000000E+00          12          23
  0.0000000E+00          12          24
  0.0000000E+00          12          25
  0.0000000E+00          12          26
  0.0000000E+00          12          27
  0.0000000E+00          12          28
  0.0000000E+00          12          31
  0.0000000E+00          12          32
  0.0000000E+00          12          34
  0.0000000E+00          12          35
  0.0000000E+00          12          36
  0.0000000E+00          12          37
  0.0000000E+00          13          21
  0.0000000E+00          13          22
  0.0000000E+00          13          30
  0.0000000E+00          13          31
  0.0000000E+00          13          33
  0.0000000E+00          13          34
  0.0000000E+00          13          35
  0.0000000E+00          13          36
  0.0000000E+00          13          37
  0.0000000E+00          14          19
  0.0000000E+00          14          20
  0.0000000E+00          14          20
  0.0000000E+00          14          30
  0.0000000E+00          14          33
  0.0000000E+00          14          37
  0.0000000E+00          14          38
  0.0000000E+00          15          18
  0.0000000E+00          15          19
  0.0000000E+00          15          29
  0.0000000E+00          15          30
  0.0000000E+00          15          33
  0.0000000E+00          15          38
  0.0000000E+00          15          39
  0.0000000E+00          15          40
  0.0000000E+00          16          28
  0.0000000E+00          16          29
  0.0000000E+00          16          33
  0.0000000E+00          16          38
  0.0000000E+00          17          28
  0.0000000E+00          17          29
  0.0000000E+00          17          32
  0.0000000E+00          17          33
  0.0000000E+00          17          38
  0.0000000E+00          18          27
  0.0000000E+00          18          28
  0.0000000E+00          18          32
  0.0000000E+00          18          36
  0.0000000E+00          18          37
  0.0000000E+00          18          38
  0.0000000E+00          19          27
  0.0000000E+00          19          30
  0.0000000E+00          19          31
  0.0000000E+00          19          32
  0.0000000E+00          19          34
  0.0000000E+00          19          35
  0.0000000E+00          19          36
  0.0000000E+00          20          29
  0.0000000E+00          20          30
  0.0000000E+00          20          32
  0.0000000E+00          20          33
  0.0000000E+00          20          34
  0.0000000E+00          21          29
  0.0000000E+00          21          32
  0.0000000E+00          22          28
  0.0000000E+00          22          29
 
 Day:        1000
 Channel depth, Cell Row, Cell Column
  2.0000000E-02           2           6
  2.0000000E-02           2           7
  2.0000000E-02           2           8
  2.0000000E-02           3           4
  2.0000000E-02           3           5
  2.0000000E-02           3           6
  1.8421054E-02           3           8
  1.3607400E-02           3           9
  2.0000000E-02           3          10
  1.0234441E-02           4          10
  1.4317370E-02           4          11
  2.0000000E-02           4          12
  2.0000000E-02           4          19
  2.0000000E-02           4          20
  1.4269611E-02           5          12
  1.9121950E-02           5          13
  1.9046564E-02           5          14
  1.5152761E-02           5          15
  1.0267983E-02           5          16
  2.0000000E-02           5          17
  2.0000000E-02           5          18
  2.0000000E-02           5          19
  2.0000000E-02           5          20
  2.0000000E-02           5          21
  2.0000000E-02           5          22
  2.0000000E-02           5          23
  1.4828217E-02           5          24
  1.0896700E-02           5          25
  1.3026521E-02           5          26
  2.0000000E-02           6          15
  1.0183127E-02           6          16
  1.5248526E-02           6          17
  2.0000000E-02           6          23
  1.0777934E-02           6          24
  1.3435933E-02           6          25
  2.0000000E-02           6          26
  2.0000000E-02           7          14
  2.0000000E-02           7          15
  2.0000000E-02           7          22
  2.0000000E-02           7          23
  2.0000000E-02           7          26
  1.6649917E-02           7          27
  1.0974077E-02           7          28
  2.0000000E-02           8          11
  2.0000000E-02           8          12
  2.0000000E-02           8          13
  2.0000000E-02           8          14
  2.0000000E-02           8          21
  2.0000000E-02           8          22
  2.0000000E-02           8          28
  2.0000000E-02           8          29
  2.0000000E-02           8          30
  1.2048067E-02           8          31
  1.4234079E-02           9          13
  1.2404526E-02           9          14
  2.0000000E-02           9          18
  2.0000000E-02           9          19
  2.0000000E-02           9          20
  2.0000001E-02           9          21
  1.2054676E-02           9          31
  2.0000000E-02          10          18
  2.0000000E-02          10          30
  1.5342466E-02          10          31
  2.0000000E-02          10          32
  1.6059753E-02          10          33
  1.0711947E-02          10          34
  2.0000000E-02          10          35
  2.0000000E-02          11          17
  1.4393180E-02          11          28
  1.5683027E-02          11          29
  2.0000000E-02          11          32
  2.0000000E-02          11          33
  2.0000000E-02          11          34
  1.9999998E-02          11          35
  1.2430971E-02          11          36
  2.0000000E-02          12          16
  2.0000000E-02          12          17
  1.2816900E-02          12          22
  2.0000000E-02          12          23
  2.0000000E-02          12          24
  2.0000000E-02          12          25
  1.1752137E-02          12          26
  1.0101626E-02          12          27
  2.0000000E-02          12          28
  2.0000000E-02          12          31
  1.9999998E-02          12          32
  1.9823456E-02          12          34
  1.3865354E-02          12          35
  1.1481707E-02          12          36
  2.0000000E-02          12          37
  1.3339461E-02          13          21
  1.7412420E-02          13          22
  2.0000000E-02          13          30
  2.0000000E-02          13          31
  2.0000000E-02          13          33
  2.0000000E-02          13          34
  2.0000000E-02          13          35
  2.0000000E-02          13          36
  2.0000000E-02          13          37
  2.0000000E-02          14          19
  2.0000000E-02          14          20
  1.0037453E-02          14          20
  2.0000000E-02          14          30
  2.0000000E-02          14          33
  2.0000000E-02          14          37
  1.1384977E-02          14          38
  2.0000000E-02          15          18
  2.0000000E-02          15          19
  2.0000000E-02          15          29
  2.0000000E-02          15          30
  2.0000000E-02          15          33
  1.5006032E-02          15          38
  1.4643629E-02          15          39
  1.3714702E-02          15          40
  2.0000000E-02          16          28
  2.0000000E-02          16          29
  1.0385542E-02          16          33
  2.0000000E-02          16          38
  1.6223662E-02          17          28
  1.6842103E-02          17          29
  2.0000000E-02          17          32
  2.0000000E-02          17          33
  2.0000000E-02          17          38
  2.0000000E-02          18          27
  2.0000000E-02          18          28
  2.0000000E-02          18          32
  2.0000000E-02          18          36
  2.0000000E-02          18          37
  2.0000000E-02          18          38
  2.0000000E-02          19          27
  2.0000000E-02          19          30
  2.0000000E-02          19          31
  2.0000000E-02          19          32
  2.0000000E-02          19          34
  2.0000000E-02          19          35
  2.0000000E-02          19          36
  1.2339722E-02          20          29
  1.2732291E-02          20          30
  2.0000000E-02          20          32
  2.0000000E-02          20          33
  2.0000000E-02          20          34
  2.0000000E-02          21          29
  2.0000000E-02          21          32
  2.0000000E-02          22          28
  2.0000000E-02          22          29
