 Monthly Averaged Recharge Values for MODFLOW
 
 month:           1 year:        1985
      0.0000      0.0000      0.0000      0.0000      0.0000      0.0000      0.0000      0.0000      0.0000      0.0000      0.0000      0.0000      0.0000      0.0000      0.0000      0.0000      0.0000      0.0000      0.0000      0.0000      0.0000      0.0000      0.0000      0.0000      0.0000      0.0000      0.0000      0.0000      0.0000      0.0000      0.0000      0.0000      0.0000      0.0000      0.0000      0.0000      0.0000      0.0000      0.0000      0.0000
      0.0000      0.0000      0.0000      0.0000      0.0000      0.0000      0.0000      0.0000      0.0000      0.0000      0.0000      0.0000      0.0000      0.0000      0.0000      0.0000      0.0000      0.0000      0.0000      0.0000      0.0000      0.0000      0.0000      0.0000      0.0000      0.0000      0.0000      0.0000      0.0000      0.0000      0.0000      0.0000      0.0000      0.0000      0.0000      0.0000      0.0000      0.0000      0.0000      0.0000
      0.0000      0.0000      0.0000      0.0000      0.0000      0.0000      0.0000      0.0000      0.0000      0.0000      0.0000      0.0000      0.0000      0.0000      0.0000      0.0000      0.0000      0.0000      0.0000      0.0000      0.0000      0.0000      0.0000      0.0000      0.0000      0.0000      0.0000      0.0000      0.0000      0.0000      0.0000      0.0000      0.0000      0.0000      0.0000      0.0000      0.0000      0.0000      0.0000      0.0000
      0.0000      0.0000      0.0000      0.0000      0.0000      0.0000      0.0000      0.0000      0.0000      0.0000      0.0000      0.0000      0.0000      0.0000      0.0000      0.0000      0.0000      0.0000      0.0000      0.0000      0.0000      0.0000      0.0000      0.0000      0.0000      0.0000      0.0000      0.0000      0.0000      0.0000      0.0000      0.0000      0.0000      0.0000      0.0000      0.0000      0.0000      0.0000      0.0000      0.0000
      0.0000      0.0000      0.0000      0.0000      0.0000      0.0000      0.0000      0.0000      0.0000      0.0000      0.0000      0.0000      0.0000      0.0000      0.0000      0.0000      0.0000      0.0000      0.0000      0.0000      0.0000      0.0000      0.0000      0.0000      0.0000      0.0000      0.0000      0.0000      0.0000      0.0000      0.0000      0.0000      0.0000      0.0000      0.0000      0.0000      0.0000      0.0000      0.0000      0.0000
      0.0000      0.0000      0.0000      0.0000      0.0000      0.0000      0.0000      0.0000      0.0000      0.0000      0.0000      0.0000      0.0000      0.0000      0.0000      0.0000      0.0000      0.0000      0.0000      0.0000      0.0000      0.0000      0.0000      0.0000      0.0000      0.0000      0.0000      0.0000      0.0000      0.0000      0.0000      0.0000      0.0000      0.0000      0.0000      0.0000      0.0000      0.0000      0.0000      0.0000
      0.0000      0.0000      0.0000      0.0000      0.0000      0.0000      0.0000      0.0000      0.0000      0.0000      0.0000      0.0000      0.0000      0.0000      0.0000      0.0000      0.0000      0.0000      0.0000      0.0000      0.0000      0.0000      0.0000      0.0000      0.0000      0.0000      0.0000      0.0000      0.0000      0.0000      0.0000      0.0000      0.0000      0.0000      0.0000      0.0000      0.0000      0.0000      0.0000      0.0000
      0.0000      0.0000      0.0000      0.0000      0.0000      0.0000      0.0000      0.0000      0.0000      0.0000      0.0000      0.0000      0.0000      0.0000      0.0000      0.0000      0.0000      0.0000      0.0000      0.0000      0.0000      0.0000      0.0000      0.0000      0.0000      0.0000      0.0000      0.0000      0.0000      0.0000      0.0000      0.0000      0.0000      0.0000      0.0000      0.0000      0.0000      0.0000      0.0000      0.0000
      0.0000      0.0000      0.0000      0.0000      0.0000      0.0000      0.0000      0.0000      0.0000      0.0000      0.0000      0.0000      0.0000      0.0000      0.0000      0.0000      0.0000      0.0000      0.0000      0.0000      0.0000      0.0000      0.0000      0.0000      0.0000      0.0000      0.0000      0.0000      0.0000      0.0000      0.0000      0.0000      0.0000      0.0000      0.0000      0.0000      0.0000      0.0000      0.0000      0.0000
      0.0000      0.0000      0.0000      0.0000      0.0000      0.0000      0.0000      0.0000      0.0000      0.0000      0.0000      0.0000      0.0000      0.0000      0.0000      0.0000      0.0000      0.0000      0.0000      0.0000      0.0000      0.0000      0.0000      0.0000      0.0000      0.0000      0.0000      0.0000      0.0000      0.0000      0.0000      0.0000      0.0000      0.0000      0.0000      0.0000      0.0000      0.0000      0.0000      0.0000
      0.0000      0.0000      0.0000      0.0000      0.0000      0.0000      0.0000      0.0000      0.0000      0.0000      0.0000      0.0000      0.0000      0.0000      0.0000      0.0000      0.0000      0.0000      0.0000      0.0000      0.0000      0.0000      0.0000      0.0000      0.0000      0.0000      0.0000      0.0000      0.0000      0.0000      0.0000      0.0000      0.0000      0.0000      0.0000      0.0000      0.0000      0.0000      0.0000      0.0000
      0.0000      0.0000      0.0000      0.0000      0.0000      0.0000      0.0000      0.0000      0.0000      0.0000      0.0000      0.0000      0.0000      0.0000      0.0000      0.0000      0.0000      0.0000      0.0000      0.0000      0.0000      0.0000      0.0000      0.0000      0.0000      0.0000      0.0000      0.0000      0.0000      0.0000      0.0000      0.0000      0.0000      0.0000      0.0000      0.0000      0.0000      0.0000      0.0000      0.0000
      0.0000      0.0000      0.0000      0.0000      0.0000      0.0000      0.0000      0.0000      0.0000      0.0000      0.0000      0.0000      0.0000      0.0000      0.0000      0.0000      0.0000      0.0000      0.0000      0.0000      0.0000      0.0000      0.0000      0.0000      0.0000      0.0000      0.0000      0.0000      0.0000      0.0000      0.0000      0.0000      0.0000      0.0000      0.0000      0.0000      0.0000      0.0000      0.0000      0.0000
      0.0000      0.0000      0.0000      0.0000      0.0000      0.0000      0.0000      0.0000      0.0000      0.0000      0.0000      0.0000      0.0000      0.0000      0.0000      0.0000      0.0000      0.0000      0.0000      0.0000      0.0000      0.0000      0.0000      0.0000      0.0000      0.0000      0.0000      0.0000      0.0000      0.0000      0.0000      0.0000      0.0000      0.0000      0.0000      0.0000      0.0000      0.0000      0.0000      0.0000
      0.0000      0.0000      0.0000      0.0000      0.0000      0.0000      0.0000      0.0000      0.0000      0.0000      0.0000      0.0000      0.0000      0.0000      0.0000      0.0000      0.0000      0.0000      0.0000      0.0000      0.0000      0.0000      0.0000      0.0000      0.0000      0.0000      0.0000      0.0000      0.0000      0.0000      0.0000      0.0000      0.0000      0.0000      0.0000      0.0000      0.0000      0.0000      0.0000      0.0000
      0.0000      0.0000      0.0000      0.0000      0.0000      0.0000      0.0000      0.0000      0.0000      0.0000      0.0000      0.0000      0.0000      0.0000      0.0000      0.0000      0.0000      0.0000      0.0000      0.0000      0.0000      0.0000      0.0000      0.0000      0.0000      0.0000      0.0000      0.0000      0.0000      0.0000      0.0000      0.0000      0.0000      0.0000      0.0000      0.0000      0.0000      0.0000      0.0000      0.0000
      0.0000      0.0000      0.0000      0.0000      0.0000      0.0000      0.0000      0.0000      0.0000      0.0000      0.0000      0.0000      0.0000      0.0000      0.0000      0.0000      0.0000      0.0000      0.0000      0.0000      0.0000      0.0000      0.0000      0.0000      0.0000      0.0000      0.0000      0.0000      0.0000      0.0000      0.0000      0.0000      0.0000      0.0000      0.0000      0.0000      0.0000      0.0000      0.0000      0.0000
      0.0000      0.0000      0.0000      0.0000      0.0000      0.0000      0.0000      0.0000      0.0000      0.0000      0.0000      0.0000      0.0000      0.0000      0.0000      0.0000      0.0000      0.0000      0.0000      0.0000      0.0000      0.0000      0.0000      0.0000      0.0000      0.0000      0.0000      0.0000      0.0000      0.0000      0.0000      0.0000      0.0000      0.0000      0.0000      0.0000      0.0000      0.0000      0.0000      0.0000
      0.0000      0.0000      0.0000      0.0000      0.0000      0.0000      0.0000      0.0000      0.0000      0.0000      0.0000      0.0000      0.0000      0.0000      0.0000      0.0000      0.0000      0.0000      0.0000      0.0000      0.0000      0.0000      0.0000      0.0000      0.0000      0.0000      0.0000      0.0000      0.0000      0.0000      0.0000      0.0000      0.0000      0.0000      0.0000      0.0000      0.0000      0.0000      0.0000      0.0000
      0.0000      0.0000      0.0000      0.0000      0.0000      0.0000      0.0000      0.0000      0.0000      0.0000      0.0000      0.0000      0.0000      0.0000      0.0000      0.0000      0.0000      0.0000      0.0000      0.0000      0.0000      0.0000      0.0000      0.0000      0.0000      0.0000      0.0000      0.0000      0.0000      0.0000      0.0000      0.0000      0.0000      0.0000      0.0000      0.0000      0.0000      0.0000      0.0000      0.0000
      0.0000      0.0000      0.0000      0.0000      0.0000      0.0000      0.0000      0.0000      0.0000      0.0000      0.0000      0.0000      0.0000      0.0000      0.0000      0.0000      0.0000      0.0000      0.0000      0.0000      0.0000      0.0000      0.0000      0.0000      0.0000      0.0000      0.0000      0.0000      0.0000      0.0000      0.0000      0.0000      0.0000      0.0000      0.0000      0.0000      0.0000      0.0000      0.0000      0.0000
      0.0000      0.0000      0.0000      0.0000      0.0000      0.0000      0.0000      0.0000      0.0000      0.0000      0.0000      0.0000      0.0000      0.0000      0.0000      0.0000      0.0000      0.0000      0.0000      0.0000      0.0000      0.0000      0.0000      0.0000      0.0000      0.0000      0.0000      0.0000      0.0000      0.0000      0.0000      0.0000      0.0000      0.0000      0.0000      0.0000      0.0000      0.0000      0.0000      0.0000
      0.0000      0.0000      0.0000      0.0000      0.0000      0.0000      0.0000      0.0000      0.0000      0.0000      0.0000      0.0000      0.0000      0.0000      0.0000      0.0000      0.0000      0.0000      0.0000      0.0000      0.0000      0.0000      0.0000      0.0000      0.0000      0.0000      0.0000      0.0000      0.0000      0.0000      0.0000      0.0000      0.0000      0.0000      0.0000      0.0000      0.0000      0.0000      0.0000      0.0000
 
 month:           2 year:        1985
      0.0000      0.0000      0.0000      0.0000      0.0000     34.3973     54.3593     43.2711      6.5471      0.0000      0.0000      0.0000      0.0000      0.0000      0.0000      0.0000      0.0000      0.0000      0.0000      0.0000      0.0000      0.0000      0.0000      0.0000      0.0000      0.0000      0.0000      0.0000      0.0000      0.0000      0.0000      0.0000      0.0000      0.0000      0.0000      0.0000      0.0000      0.0000      0.0000      0.0000
      0.0000      0.0000      0.0000      0.0000     43.0288    104.3556     61.8586    128.7559    150.7567     76.9707     92.0010     38.1048     78.6861     47.8923      0.0000      0.0000      0.0000      0.0000      0.0896      0.9565      0.0000      6.5647      3.2685      0.0000      0.0000      0.0000      0.0000      0.0000      0.0000      0.0000      0.0000      0.0000      0.0000      0.0000      0.0000      0.0000      0.0000      0.0000      0.0000      0.0000
      0.0000      0.0000      0.0000      0.0000     80.6992     27.7889      3.3035    100.2741     68.8141     88.9048    105.9581     95.5618     95.3027     77.5806    107.9909     36.2740     11.4955     11.3406      1.1172     26.8036     17.0668      0.0000     26.0435      5.5172     39.8316     63.4401      0.0000      0.0000      0.0000      0.0000      0.0000      0.0000      0.0000      0.0000      0.0000      0.0000      0.0000      0.0000      0.0000      0.0000
      0.0000      0.0000      0.0000      0.0000     31.7856      1.2726      0.0000     15.6511     26.7389     30.0827     55.5613     75.3456     96.1458     51.4745     62.2759      4.5001      6.2642     26.2839     52.2174     73.0309     37.3053      1.4470     49.3083     30.7334     92.0525    131.6532     95.7837      5.1606      0.0000      0.0000      0.0000      0.0000      0.0000      0.0000      0.0000      0.0000      0.0000      0.0000      0.0000      0.0000
      0.0000      0.0000      0.0000      0.0000      0.0000      0.0000      0.0000      0.3785     55.8777     66.5901     96.9860     63.1831      9.5002     29.7870     45.5554     42.1943     91.8193     36.6772     67.6848     50.4680     34.7003     26.6518     38.9856     92.9544    114.4821    135.6377     89.7337    114.3508     87.0697     65.2824     17.9502      1.0069      0.0000      0.0000      0.0000      0.0000      0.0000      0.0000      0.0000      0.0000
      0.0000      0.0000      0.0000      0.0000      0.0000      0.0000      0.0000      2.1052     53.2405     49.9872     63.6234    105.7417     71.2701     65.0169    160.3654      8.0994     28.2410     36.3754      9.3811     30.0404     51.7476     38.6802    109.6083    129.9455    128.8564     78.8685    150.1531     86.8648     42.7537     51.0972    109.2973     72.5566     17.4436      0.0000      0.0000      0.0000      0.0000      0.0000      0.0000      0.0000
      0.0000      0.0000      0.0000      0.0000      0.0000      0.0000      0.0000      0.0000      8.6319     13.8934     41.3640     36.0128     41.2917    124.2130     52.6933     51.3192      4.0458      5.3074      0.0000      0.0000     19.5783    134.5324     71.0643     69.1072     37.9956    169.6271    129.6803    137.8789    124.3826    136.8308    138.5155     78.1376     77.6258     62.7942      9.9507      0.0000      0.0000      0.0000      0.0000      0.0000
      0.0000      0.0000      0.0000      0.0000      0.0000      0.0000      0.0000      0.0000      0.0000      4.1967    170.8201    203.1591     68.8257     38.4473     81.9633     90.3645      0.0000      0.0000      0.0000      0.0000      0.0000     45.7715     22.5488      0.1457     22.1838     39.7766    105.7129    176.0913    136.2266    121.3964     97.3937      4.3210     31.7239     82.8752     24.4483     86.7627      0.0000      0.0000      0.0000      0.0000
      0.0000      0.0000      0.0000      0.0000      0.0000      0.0000      0.0000      0.0000      0.0000      0.1946      8.7826     96.2965    191.6514    109.0656      0.6330      0.2532      0.0000      0.0000      3.3340     11.3497      8.6850      3.8403      7.3949      0.0000      0.0000      0.0000      0.0000     25.8476     45.8439    200.3742     45.2020     39.0009     68.4854     77.9112     37.9737     67.8728     60.2575      0.0000      0.0000      0.0000
      0.0000      0.0000      0.0000      0.0000      0.0000      0.0000      0.0000      0.0000      0.0000      0.0000      3.1464     50.8728    166.8084     23.4845      0.0000      0.0000      0.0000      0.0000      0.0000      0.0000      0.0000      0.0000      0.0000      0.0000      0.0000      0.0000      0.0000     51.3627    182.9420    119.3380    138.2062     82.5839     91.9096     48.7039      9.4303     16.8109     25.9355      0.0000     14.4622      0.0000
      0.0000      0.0000      0.0000      0.0000      0.0000      0.0000      0.0000      0.0000      0.0000      6.0403     45.7939     72.3908     13.7900      0.0000      0.0000      0.0000      0.0000      0.0000      0.0000      0.0000      0.0000      0.1480      0.0000      7.5477      9.6690      4.4105      9.4777    119.0427    131.1311     61.9649      6.1693     46.8297     28.3095     37.6251     12.8205     41.3575      5.1871      0.0000      3.8088      0.0000
      0.0000      0.0000      0.0000      0.0000      0.0000      0.0000      0.0000      0.0000      0.0000      0.0000      0.0000      0.0000      0.0000      0.0000      0.0000      0.0000      0.0000      0.0000      0.0000      0.0000     27.8699     54.8802     24.5547     84.0303     37.9856     59.6034    120.1526    125.1270     30.7713      5.2488     15.2306     18.8796     22.7146     52.9597     66.4432     37.6430     24.8487      0.0000      2.7947      0.0000
      0.0000      0.0000      0.0000      0.0000      0.0000      0.0000      0.0000      0.0000      0.0000      0.0000      0.0000      0.0000      0.0000      0.0000      0.0000      0.0000      0.0000      0.0000      0.0000     22.0009     86.9895     38.2132     30.0125     44.2598    101.0769    135.6686    132.7252     92.7472      3.0144      3.0144     31.0784      0.0000     13.6511     72.6715     89.3523    127.2986     36.7770      8.8109     14.4971      0.0000
      0.0000      0.0000      0.0000      0.0000      0.0000      0.0000      0.0000      0.0000      0.0000      0.0000      0.0000      0.0000      0.0000      0.0000      0.0000      0.0000      0.0000      0.0000      0.0000     21.2356     67.4106      0.0000     16.4858      7.2182     63.1750     50.7684     89.1994     26.8147     13.2051      7.7160     41.9113      0.0000      3.4897     96.7722    122.2756    133.2660    113.0232     40.3928     19.5388     12.7114
      0.0000      0.0000      0.0000      0.0000      0.0000      0.0000      0.0000      0.0000      0.0000      0.0000      0.0000      0.0000      0.0000      0.0000      0.0000      0.0000      0.0000      0.0000      0.0000      0.0000      0.0000      0.0000      4.7744      0.5653      0.0000      5.9873      2.6246      0.0000      0.0000     52.9387     13.1711      0.0000     21.2557     68.1802     88.8350     70.0203    108.6526    104.6436     49.7869     64.6890
      0.0000      0.0000      0.0000      0.0000      0.0000      0.0000      0.0000      0.0000      0.0000      0.0000      0.0000      0.0000      0.0000      0.0000      0.0000      0.0000      0.0000      0.0000      0.0000      0.0000      0.0000      0.0000      0.0000     13.2298     15.4523      0.0932      0.0000      0.0000     32.9996     61.7529     42.7141     25.7080     63.4031     35.4809     76.3445    114.8519    130.9839     80.7254    157.8167      0.0000
      0.0000      0.0000      0.0000      0.0000      0.0000      0.0000      0.0000      0.0000      0.0000      0.0000      0.0000      0.0000      0.0000      0.0000      0.0000      0.0000      0.0000      0.0000      0.0000      0.0000      0.0000      0.0000      0.0000      0.0000     27.1451     15.6040      2.0547     26.7688     78.6403      8.5504     29.0188     34.5134     62.4937     12.3831     36.5914     45.9367     94.8465     64.3026     47.9545      0.0000
      0.0000      0.0000      0.0000      0.0000      0.0000      0.0000      0.0000      0.0000      0.0000      0.0000      0.0000      0.0000      0.0000      0.0000      0.0000      0.0000      0.0000      0.0000      0.0000      0.0000      0.0000      0.0000      0.0000      0.0000      3.3812     20.9870      3.8077     60.1819     27.3788      0.1091      8.7548     20.7573     48.8039     52.6023     37.2243     86.9601     75.5339     90.0309      0.0000      0.0000
      0.0000      0.0000      0.0000      0.0000      0.0000      0.0000      0.0000      0.0000      0.0000      0.0000      0.0000      0.0000      0.0000      0.0000      0.0000      0.0000      0.0000      0.0000      0.0000      0.0000      0.0000      0.0000      0.0000      0.0000      0.0000      0.0000     34.4746      5.2853      0.0000     21.8870     51.5512     66.0550      5.6620     62.8416     80.5887     79.0182    125.1401     13.7472      0.0000      0.0000
      0.0000      0.0000      0.0000      0.0000      0.0000      0.0000      0.0000      0.0000      0.0000      0.0000      0.0000      0.0000      0.0000      0.0000      0.0000      0.0000      0.0000      0.0000      0.0000      0.0000      0.0000      0.0000      0.0000      0.0000      0.0000      0.0000     17.5764     11.9185     24.8989     59.3369     31.3036      3.0689     52.2207     69.6574     37.1154     49.8810      0.0000      0.0000      0.0000      0.0000
      0.0000      0.0000      0.0000      0.0000      0.0000      0.0000      0.0000      0.0000      0.0000      0.0000      0.0000      0.0000      0.0000      0.0000      0.0000      0.0000      0.0000      0.0000      0.0000      0.0000      0.0000      0.0000      0.0000      0.0000      0.0000      0.0000      0.0000      1.7858      6.2562     10.4262      0.0000     11.2123     83.8460      0.0000      0.0000      0.0000      0.0000      0.0000      0.0000      0.0000
      0.0000      0.0000      0.0000      0.0000      0.0000      0.0000      0.0000      0.0000      0.0000      0.0000      0.0000      0.0000      0.0000      0.0000      0.0000      0.0000      0.0000      0.0000      0.0000      0.0000      0.0000      0.0000      0.0000      0.0000      0.0000      0.0000      0.0000      0.0000      0.0000      0.0000      0.0000      0.0000      0.0000      0.0000      0.0000      0.0000      0.0000      0.0000      0.0000      0.0000
      0.0000      0.0000      0.0000      0.0000      0.0000      0.0000      0.0000      0.0000      0.0000      0.0000      0.0000      0.0000      0.0000      0.0000      0.0000      0.0000      0.0000      0.0000      0.0000      0.0000      0.0000      0.0000      0.0000      0.0000      0.0000      0.0000      0.0000      0.0000      0.0000      0.0000      0.0000      0.0000      0.0000      0.0000      0.0000      0.0000      0.0000      0.0000      0.0000      0.0000
 
 month:           3 year:        1985
      0.0000    112.7955    316.7534    266.7792    324.7850    334.5912    346.2602    161.1611     24.9374      0.0000      0.0000      0.0000      0.0000      0.0000      0.0000      0.0000      0.0000      0.0000      0.0000      0.0000      0.0000      0.0000      0.0000      0.0000      0.0000      0.0000      0.0000      0.0000      0.0000      0.0000      0.0000      0.0000      0.0000      0.0000      0.0000      0.0000      0.0000      0.0000      0.0000      0.0000
      4.3144     83.2611    171.4675    276.2715    285.9020    392.0280    355.9057    414.6239    430.2276    303.1963    319.6743    118.4177    237.6325    141.4241      0.0000      0.0000      0.0000      0.0000     91.8662     79.9022    179.6297    135.5260    127.1301      0.0000      0.0000      0.0000      0.0000      0.0000      0.0000      0.0000      0.0000      0.0000      0.0000      0.0000      0.0000      0.0000      0.0000      0.0000      0.0000      0.0000
      0.0000     85.3581    248.2885    231.3891    237.0368    200.4984    301.9262    368.3215    317.2242    464.1091    484.7480    365.4198    411.4045    405.8525    350.2729    151.5245    149.8891    183.7877    130.0588    191.6773    187.0473     92.3934    176.7659     37.6147    152.4427    401.4988      0.0000      0.0000      0.0000      0.0000      0.0000      0.0000      0.0000      0.0000      0.0000      0.0000      0.0000      0.0000      0.0000      0.0000
      0.0000      0.0000    118.2633    156.2825     89.3965    159.4239    227.6078    239.6540    337.1366    215.1773    282.4047    363.5869    466.1715    400.4115    391.3477    188.5452    123.3921    241.3988    385.8517    347.1235    215.6573     84.7231    143.9246     77.1417    283.6541    420.9411    352.7665     72.6668      0.0000      0.0000      0.0000      0.0000      0.0000      0.0000      0.0000      0.0000      0.0000      0.0000      0.0000      0.0000
      0.0000      0.0000      0.0000      0.0000      0.0000      0.7905     19.9039     95.2615    301.3361    285.3674    416.9189    258.4756    207.1851    276.9461    242.6442    275.9283    384.3278    332.4504    312.4322    300.1856    328.6515    331.7058    254.6765    370.7897    434.7007    418.3842    286.8942    370.3761    291.9446    230.8113    244.8472     16.3490      0.0000      0.0000      0.0000      0.0000      0.0000      0.0000      0.0000      0.0000
      0.0000      0.0000      0.0000      0.0000      0.0000      0.0000      0.0000     28.7573    144.3188    202.3830    332.6824    344.0874    297.9478    358.2818    463.9425    187.6978    300.9449    233.4441     28.1568     94.6499    154.1181    114.8578    349.9571    418.2155    387.4004    254.4646    441.4262    275.0301    138.5642    166.1630    358.6940    255.8296     93.2067      0.0000      0.0000      0.0000      0.0000      0.0000      0.0000      0.0000
      0.0000      0.0000      0.0000      0.0000      0.0000      0.0000      0.0000      0.0000     88.0638    169.6996    293.2192    159.2849    270.5772    386.5030    314.4608    391.5929     81.0505     41.5736      0.0000      0.0000     46.2787    337.1872    244.5389    231.3619    213.3129    483.2076    341.7660    389.9229    348.4760    427.9750    448.2653    262.2325    249.8907    271.2661     55.8918      0.0000      0.0000      0.0000      0.0000      0.0000
      0.0000      0.0000      0.0000      0.0000      0.0000      0.0000      0.0000      0.0000      0.0000     88.8381    409.6380    493.2730    381.4433    288.5439    326.1541    244.1965      0.0000      0.0000      0.0000      0.0000      0.0000    123.4153     82.0937      0.4597     98.3878    139.9057    371.8096    470.5273    365.4433    378.1407    332.7226     23.6288    104.5937    267.0130     78.4509    300.8491      6.5047      0.0000      0.0000      0.0000
      0.0000      0.0000      0.0000      0.0000      0.0000      0.0000      0.0000      0.0000      3.1363     25.2749     17.8752    202.2503    523.8715    323.0762      1.9732      0.6269      0.0000      0.0000      7.5924     25.8463     27.4074     11.9406     25.1473      0.0000      0.2257      0.0000     38.6355    157.6629    337.9404    471.1031    222.5690    111.8335    205.3296    238.6371    122.7040    226.5000    301.9703      0.0000      0.0000      0.0000
      0.0000      0.0000      0.0000      0.0000      0.0000      0.0000      0.5800    100.4378     95.1163     90.6981     25.3097    113.3695    436.0222     51.1077      0.0000      0.0000      0.0000      0.0000      0.0000      0.0000      0.0000      0.0000      0.0000      0.0000      0.0000      7.6663     42.1647    131.4451    411.8370    324.4727    344.5942    273.4975    297.0583    273.3748     40.8595     55.7187    143.9563     20.2781    169.2759      0.0000
      0.0000      0.0000      0.0000      0.0000      0.0000      0.0000      0.0000     18.5774    236.6846    160.1615    179.7272    166.6062     30.8946      0.0000      0.0000      0.0000      0.0000      0.0000      0.0000      0.0000      0.5624     53.6412     27.4855     16.6796     21.3673     10.3032     43.0841    341.4283    353.4740    165.5387     12.5737    124.7951    125.7860    197.0461     90.1005    148.5062     15.9875     25.9360     41.1422      0.0000
      0.0000      0.0000      0.0000      0.0000      0.0000      0.0000      0.0000      0.0000      0.0000      0.0000      0.0000      0.0000      0.0000      0.0000      0.0000      0.0000      0.0000      0.0000      0.0000     17.0391    170.9243    237.7211    261.0861    317.6828    302.4341    280.8348    353.6678    355.5800     98.8921     23.7081     84.3478     61.2448     64.6367    224.8854    178.3807    122.1320    107.0984     30.3915     24.9238      0.0000
      0.0000      0.0000      0.0000      0.0000      0.0000      0.0000      0.0000      0.0000      0.0000      0.0000      0.0000      0.0000      0.0000      0.0000      0.0000      0.0000      0.0000      0.0000      0.0000     44.6659    257.1558    173.7063    114.8411    171.8361    295.9028    439.8538    445.8265    298.1998      9.7786      9.7786    106.8217      0.0000     24.1132    227.5027    410.0191    406.6683    133.4230     47.4331     76.9566      2.1086
      0.0000      0.0000      0.0000      0.0000      0.0000      0.0000      0.0000      0.0000      0.0000      0.0000      0.0000      0.0000      0.0000      0.0000      0.0000      0.0000      0.0000      0.0000      0.0000     48.9930    159.2410     45.9151     87.3428     30.9263    249.9846    236.9813    315.3407    148.8430     47.6160     28.6603    137.1678      0.0000     11.3252    337.4691    405.0620    468.7048    416.2176    177.6223    110.6158     79.2344
      0.0000      0.0000      0.0000      0.0000      0.0000      0.0000      0.0000      0.0000      0.0000      0.0000      0.0000      0.0000      0.0000      0.0000      0.0000      0.0000      0.0000      0.0000      0.0000      0.0000     76.6214     53.7251     42.6465     15.9342     33.6107     57.0861     41.8488     22.9211      0.0000    179.0633     53.2484      0.0000     68.9806    290.4669    339.7885    234.6179    372.0931    350.6684    190.7562    232.7470
      0.0000      0.0000      0.0000      0.0000      0.0000      0.0000      0.0000      0.0000      0.0000      0.0000      0.0000      0.0000      0.0000      0.0000      0.0000      0.0000      0.0000      0.0000     19.5861     56.9928    110.6103     11.5216     33.0600    104.5855     67.7979      0.2888      0.0000      0.0000    112.1508    251.2172    193.7519    110.8783    205.0340    257.1405    279.4791    414.4217    468.0631    276.0201    551.9426      0.0000