 Groundwater/Surface Water exchange (L3/T)
 for each MODFLOW River Cell
 Positive: River water seeps to the aquifer
 Negative: Groundwater flows from aquifer to river
 
 Day:           1
 Layer, Row, Column, Flow Rate
           1           4          11  0.0000000E+00
           1           6          17  0.0000000E+00
           1           6          16  0.0000000E+00
           1           5          16  0.0000000E+00
           1           5          15  0.0000000E+00
           1           5          14  0.0000000E+00
           1           5          13  0.0000000E+00
           1           5          12  0.0000000E+00
           1           4          12  0.0000000E+00
           1           4          11  0.0000000E+00
           1           4          10  0.0000000E+00
           1           3          10  0.0000000E+00
           1           3           9  0.0000000E+00
           1           3           8  0.0000000E+00
           1           2           8  0.0000000E+00
           1           2           7  0.0000000E+00
           1           2           6  0.0000000E+00
           1           3           6  0.0000000E+00
           1           3           5  0.0000000E+00
           1           3           4  0.0000000E+00
           1           6          25  0.0000000E+00
           1           6          24  0.0000000E+00
           1           6          23  0.0000000E+00
           1           7          23  0.0000000E+00
           1           7          22  0.0000000E+00
           1           8          22  0.0000000E+00
           1           8          21  0.0000000E+00
           1           9          21  0.0000000E+00
           1           9          20  0.0000000E+00
           1           9          19  0.0000000E+00
           1           9          18  0.0000000E+00
           1          10          18  0.0000000E+00
           1          11          17  0.0000000E+00
           1          12          17  0.0000000E+00
           1          12          16  0.0000000E+00
           1           5          26  0.0000000E+00
           1           9          31  0.0000000E+00
           1          10          30  0.0000000E+00
           1          11          29  0.0000000E+00
           1          11          29  0.0000000E+00
           1          11          28  0.0000000E+00
           1          12          28  0.0000000E+00
           1          12          27  0.0000000E+00
           1           6          17  0.0000000E+00
           1           6          16  0.0000000E+00
           1           6          15  0.0000000E+00
           1           7          15  0.0000000E+00
           1           7          14  0.0000000E+00
           1           8          14  0.0000000E+00
           1           9          14  0.0000000E+00
           1           9          13  0.0000000E+00
           1           8          13  0.0000000E+00
           1           8          12  0.0000000E+00
           1           8          11  0.0000000E+00
           1          12          36  0.0000000E+00
           1          11          36  0.0000000E+00
           1          11          35  0.0000000E+00
           1          10          35  0.0000000E+00
           1          10          34  0.0000000E+00
           1          10          33  0.0000000E+00
           1          10          32  0.0000000E+00
           1          10          31  0.0000000E+00
           1           9          31  0.0000000E+00
           1           8          31  0.0000000E+00
           1           8          30  0.0000000E+00
           1           8          29  0.0000000E+00
           1           8          28  0.0000000E+00
           1           7          28  0.0000000E+00
           1           7          27  0.0000000E+00
           1           7          26  0.0000000E+00
           1           6          26  0.0000000E+00
           1           5          26  0.0000000E+00
           1           5          25  0.0000000E+00
           1           6          25  0.0000000E+00
           1           6          24  0.0000000E+00
           1           5          24  0.0000000E+00
           1           5          23  0.0000000E+00
           1           5          22  0.0000000E+00
           1           5          21  0.0000000E+00
           1           5          20  0.0000000E+00
           1           4          20  0.0000000E+00
           1           4          19  0.0000000E+00
           1           5          19  0.0000000E+00
           1           5          18  0.0000000E+00
           1           5          17  0.0000000E+00
           1           6          17  0.0000000E+00
           1          12          27  0.0000000E+00
           1          12          26  0.0000000E+00
           1          12          26  0.0000000E+00
           1          12          25  0.0000000E+00
           1          12          24  0.0000000E+00
           1          12          23  0.0000000E+00
           1          12          22  0.0000000E+00
           1          12          22  0.0000000E+00
           1          13          22  0.0000000E+00
           1          13          22  0.0000000E+00
           1          13          21  0.0000000E+00
           1          13          21  0.0000000E+00
           1          14          20  0.0000000E+00
           1          14          19  0.0000000E+00
           1          15          19  0.0000000E+00
           1          15          18  0.0000000E+00
           1          15          40  0.0000000E+00
           1          15          39  0.0000000E+00
           1          15          38  0.0000000E+00
           1          14          38  0.0000000E+00
           1          14          37  0.0000000E+00
           1          13          36  0.0000000E+00
           1          13          37  0.0000000E+00
           1          12          37  0.0000000E+00
           1          12          36  0.0000000E+00
           1          15          40  0.0000000E+00
           1          15          39  0.0000000E+00
           1          15          38  0.0000000E+00
           1          16          38  0.0000000E+00
           1          17          38  -158.1757    
           1          18          38  0.0000000E+00
           1          18          37  0.0000000E+00
           1          18          36  0.0000000E+00
           1          19          36  0.0000000E+00
           1          19          35  0.0000000E+00
           1          19          34  0.0000000E+00
           1          20          34  0.0000000E+00
           1          20          33  0.0000000E+00
           1          20          32  0.0000000E+00
           1          21          32  0.0000000E+00
           1          12          36  0.0000000E+00
           1          13          36  0.0000000E+00
           1          13          35  0.0000000E+00
           1          12          35  0.0000000E+00
           1          12          34  0.0000000E+00
           1          11          34  0.0000000E+00
           1          11          33  0.0000000E+00
           1          11          32  0.0000000E+00
           1          12          32  0.0000000E+00
           1          12          31  0.0000000E+00
           1          13          31  0.0000000E+00
           1          13          30  0.0000000E+00
           1          14          30  0.0000000E+00
           1          15          30  0.0000000E+00
           1          15          29  0.0000000E+00
           1          17          29  0.0000000E+00
           1          16          29  0.0000000E+00
           1          16          28  0.0000000E+00
           1          17          28  0.0000000E+00
           1          18          28  0.0000000E+00
           1          18          27  0.0000000E+00
           1          19          27  0.0000000E+00
           1          12          35  0.0000000E+00
           1          12          34  0.0000000E+00
           1          13          34  0.0000000E+00
           1          13          33  0.0000000E+00
           1          14          33  0.0000000E+00
           1          15          33  0.0000000E+00
           1          16          33  0.0000000E+00
           1          17          33  0.0000000E+00
           1          17          32  0.0000000E+00
           1          18          32  0.0000000E+00
           1          19          32  0.0000000E+00
           1          19          31  0.0000000E+00
           1          19          30  0.0000000E+00
           1          20          30  0.0000000E+00
           1          20          29  0.0000000E+00
           1          21          29  0.0000000E+00
           1          22          29  0.0000000E+00
           1          22          28  0.0000000E+00
 
 Day:        1000
 Layer, Row, Column, Flow Rate
           1           4          11  -124.9602    
           1           6          17  -84.42442    
           1           6          16  -33.26497    
           1           5          16  -651.0326    
           1           5          15  -256.3072    
           1           5          14  -328.9885    
           1           5          13  -281.2021    
           1           5          12  -412.8389    
           1           4          12  -329.6140    
           1           4          11  -124.9602    
           1           4          10  -334.9100    
           1           3          10  -666.8608    
           1           3           9  -302.8830    
           1           3           8  -385.3291    
           1           2           8  -384.1699    
           1           2           7  -493.4044    
           1           2           6  -627.4022    
           1           3           6   182.3650    
           1           3           5  -909.8229    
           1           3           4  -1323.759    
           1           6          25  -69.95293    
           1           6          24  -123.9005    
           1           6          23  -73.83210    
           1           7          23  -202.8813    
           1           7          22  -266.8019    
           1           8          22  -188.3742    
           1           8          21  -141.5361    
           1           9          21  -125.8140    
           1           9          20  -270.2904    
           1           9          19  -208.8641    
           1           9          18  -542.5992    
           1          10          18   238.8986    
           1          11          17  -157.9766    
           1          12          17  -342.7523    
           1          12          16  -274.1693    
           1           5          26  -553.3504    
           1           9          31  -104.3480    
           1          10          30  -246.2141    
           1          11          29  -107.7976    
           1          11          29  -107.7976    
           1          11          28   431.6711    
           1          12          28  -389.2709    
           1          12          27  -142.1878    
           1           6          17  -84.42442    
           1           6          16  -33.26497    
           1           6          15  -94.83073    
           1           7          15  -283.6739    
           1           7          14  -180.7266    
           1           8          14  -676.6169    
           1           9          14  -21.13657    
           1           9          13  -485.0942    
           1           8          13   38.02371    
           1           8          12  -526.9976    
           1           8          11  -1062.031    
           1          12          36  -55.50472    
           1          11          36  -788.3151    
           1          11          35  -163.9895    
           1          10          35  -1200.048    
           1          10          34  -95.30341    
           1          10          33  -71.71143    
           1          10          32  -244.7082    
           1          10          31  -74.04988    
           1           9          31  -104.3480    
           1           8          31  -969.0498    
           1           8          30  -503.4131    
           1           8          29  -417.3920    
           1           8          28  -235.2494    
           1           7          28  -714.0777    
           1           7          27  -314.7834    
           1           7          26  -68.73333    
           1           6          26  -462.6591    
           1           5          26  -553.3504    
           1           5          25  -456.3229    
           1           6          25  -69.95293    
           1           6          24  -123.9005    
           1           5          24  -464.1813    
           1           5          23  -282.3912    
           1           5          22  -287.3276    
           1           5          21  -333.6047    
           1           5          20  -255.4298    
           1           4          20  -920.6331    
           1           4          19  -804.1678    
           1           5          19  -158.2545    
           1           5          18  -429.4630    
           1           5          17  -503.0834    
           1           6          17  -84.42442    
           1          12          27  -142.1878    
           1          12          26  -195.0582    
           1          12          26  -195.0582    
           1          12          25  -450.8604    
           1          12          24  -803.2915    
           1          12          23  -574.1900    
           1          12          22  -237.4829    
           1          12          22  -237.4829    
           1          13          22  -96.27425    
           1          13          22  -96.27425    
           1          13          21  -229.7426    
           1          13          21  -229.7426    
           1          14          20  -618.0110    
           1          14          19  -489.8025    
           1          15          19  -301.8633    
           1          15          18  -1026.338    
           1          15          40  -380.7507    
           1          15          39  -435.3209    
           1          15          38   300.5204    
           1          14          38  -683.6649    
           1          14          37  -325.7900    
           1          13          36  -102.3807    
           1          13          37  -344.8950    
           1          12          37  -766.3474    
           1          12          36  -55.50472    
           1          15          40  -380.7507    
           1          15          39  -435.3209    
           1          15          38   300.5204    
           1          16          38  -540.9008    
           1          17          38  -1240.025    
           1          18          38   557.5126    
           1          18          37  -850.7202    
           1          18          36  -108.7873    
           1          19          36  -289.3550    
           1          19          35  -622.5343    
           1          19          34  -715.9382    
           1          20          34   467.4139    
           1          20          33  -701.7497    
           1          20          32  -198.3686    
           1          21          32  -430.2587    
           1          12          36  -55.50472    
           1          13          36  -102.3807    
           1          13          35  -255.4273    
           1          12          35   6.066663    
           1          12          34  -99.83105    
           1          11          34   8.918786    
           1          11          33  -123.3927    
           1          11          32  -64.64648    
           1          12          32   122.4352    
           1          12          31   600.1282    
           1          13          31   103.0518    
           1          13          30  -414.1408    
           1          14          30  -525.4920    
           1          15          30  -92.31610    
           1          15          29  -468.7758    
           1          17          29   505.3711    
           1          16          29  -802.9975    
           1          16          28  -421.4750    
           1          17          28  -797.0093    
           1          18          28   108.8401    
           1          18          27  -579.7170    
           1          19          27  -774.9055    
           1          12          35   6.066663    
           1          12          34  -99.83105    
           1          13          34  -242.8043    
           1          13          33  -219.7359    
           1          14          33  -368.9781    
           1          15          33  -700.5229    
           1          16          33  -425.1314    
           1          17          33   48.67429    
           1          17          32  -131.7827    
           1          18          32  -851.1062    
           1          19          32   600.1282    
           1          19          31  -502.4743    
           1          19          30  -786.6810    
           1          20          30   240.8064    
           1          20          29   32.10191    
           1          21          29  -534.6483    
           1          22          29   45.71128    
           1          22          28  -909.3770    
