# swatmf.con created by swamf
wd	D:/Workshops/2022_swatmf_pest/SWAT-MODFLOW
subs	[58]
grids	[501]
sim_start	1/1/1985
cal_start	1/1/1985
cal_end	12/31/1985
time_step	day
riv_parm	n
depth_to_water	y
baseflow	n
