xul -1.692811342000E+005 
yul  9.526755168000E+005 
rotation  0.000000000000E+000 
length_units meters
time_units days
start_date 1/1/1980
start_time 0:0:0
model MODFLOW-NWT
epsg 
