Metadata-Version: 2.1
Name: flopy
Version: 3.5.0.dev0
Summary: FloPy is a Python package to create, run, and post-process MODFLOW-based models
Author-email: FloPy Team <modflow@usgs.gov>
Maintainer-email: "Joseph D. Hughes" <jdhughes@usgs.gov>
License: CC0
Project-URL: Documentation, https://flopy.readthedocs.io
Project-URL: Release Notes, https://github.com/modflowpy/flopy/blob/develop/docs/version_changes.md
Project-URL: Bug Tracker, https://github.com/modflowpy/flopy/issues
Project-URL: Source Code, https://github.com/modflowpy/flopy
Keywords: MODFLOW,groundwater,hydrogeology
Classifier: Development Status :: 5 - Production/Stable
Classifier: Intended Audience :: Science/Research
Classifier: License :: CC0 1.0 Universal (CC0 1.0) Public Domain Dedication
Classifier: Programming Language :: Python :: 3 :: Only
Classifier: Programming Language :: Python :: 3.8
Classifier: Programming Language :: Python :: 3.9
Classifier: Programming Language :: Python :: 3.10
Classifier: Programming Language :: Python :: 3.11
Classifier: Topic :: Scientific/Engineering :: Hydrology
Requires-Python: >=3.8
Description-Content-Type: text/markdown
License-File: LICENSE.md
Requires-Dist: numpy>=1.15.0
Requires-Dist: matplotlib>=1.4.0
Requires-Dist: pandas>=2.0.0
Provides-Extra: lint
Requires-Dist: black; extra == "lint"
Requires-Dist: cffconvert; extra == "lint"
Requires-Dist: flake8; extra == "lint"
Requires-Dist: isort; extra == "lint"
Requires-Dist: pylint; extra == "lint"
Provides-Extra: test
Requires-Dist: flopy[lint]; extra == "test"
Requires-Dist: coverage; extra == "test"
Requires-Dist: flaky; extra == "test"
Requires-Dist: filelock; extra == "test"
Requires-Dist: jupyter; extra == "test"
Requires-Dist: jupytext; extra == "test"
Requires-Dist: modflow-devtools; extra == "test"
Requires-Dist: pytest; extra == "test"
Requires-Dist: pytest-benchmark; extra == "test"
Requires-Dist: pytest-cases; extra == "test"
Requires-Dist: pytest-cov; extra == "test"
Requires-Dist: pytest-dotenv; extra == "test"
Requires-Dist: pytest-virtualenv; extra == "test"
Requires-Dist: pytest-xdist; extra == "test"
Requires-Dist: virtualenv; extra == "test"
Provides-Extra: optional
Requires-Dist: affine; extra == "optional"
Requires-Dist: descartes; extra == "optional"
Requires-Dist: fiona; extra == "optional"
Requires-Dist: geojson; extra == "optional"
Requires-Dist: imageio; extra == "optional"
Requires-Dist: netcdf4; extra == "optional"
Requires-Dist: pymetis; platform_system != "Windows" and extra == "optional"
Requires-Dist: pyproj; extra == "optional"
Requires-Dist: pyshp; extra == "optional"
Requires-Dist: python-dateutil>=2.4.0; extra == "optional"
Requires-Dist: pyvista; extra == "optional"
Requires-Dist: rasterio; extra == "optional"
Requires-Dist: rasterstats; extra == "optional"
Requires-Dist: scipy; extra == "optional"
Requires-Dist: shapely>=1.8; extra == "optional"
Requires-Dist: vtk; extra == "optional"
Requires-Dist: xmipy; extra == "optional"
Provides-Extra: doc
Requires-Dist: flopy[optional]; extra == "doc"
Requires-Dist: ipython[kernel]; extra == "doc"
Requires-Dist: jupytext; extra == "doc"
Requires-Dist: nbsphinx; extra == "doc"
Requires-Dist: nbsphinx-link; extra == "doc"
Requires-Dist: pydata-sphinx-theme; extra == "doc"
Requires-Dist: PyYAML; extra == "doc"
Requires-Dist: recommonmark; extra == "doc"
Requires-Dist: rtds-action; extra == "doc"
Requires-Dist: sphinx>=4; extra == "doc"
Requires-Dist: sphinx-rtd-theme>=1; extra == "doc"

License
=======

Unless otherwise noted, This project is in the public domain in the United
States because it contains materials that originally came from the United
States Geological Survey, an agency of the United States Department of
Interior. For more information, see the official USGS copyright policy at
https://www2.usgs.gov/visual-id/credit_usgs.html#copyright

Additionally, we waive copyright and related rights in the work
worldwide through the CC0 1.0 Universal public domain dedication.


CC0 1.0 Universal Summary
-------------------------

This is a human-readable summary of the
[Legal Code (read the full text)][1].


### No Copyright

The person who associated a work with this deed has dedicated the work to
the public domain by waiving all of his or her rights to the work worldwide
under copyright law, including all related and neighboring rights, to the
extent allowed by law.

You can copy, modify, distribute and perform the work, even for commercial
purposes, all without asking permission.


### Other Information

In no way are the patent or trademark rights of any person affected by CC0,
nor are the rights that other persons may have in the work or in how the
work is used, such as publicity or privacy rights.

Unless expressly stated otherwise, the person who associated a work with
this deed makes no warranties about the work, and disclaims liability for
all uses of the work, to the fullest extent permitted by applicable law.
When using or citing the work, you should not imply endorsement by the
author or the affirmer.



[1]: https://creativecommons.org/publicdomain/zero/1.0/legalcode
