 .Sol file Watershed HRU:473 Subbasin:20 HRU:21 Luse:URLD Soil: MBRW14 Slope: 0-9999 4/9/2015 12:00:00 AM ArcSWAT 2012.10_2.15
 Soil Name: MBRW14
 Soil Hydrologic Group: D
 Maximum rooting depth(m) :  890.00
 Porosity fraction from which anions are excluded: 0.500
 Crack volume potential of soil: 0.500
 Texture 1                : C-GRV-C-BR
 Depth                [mm]:      230.00      380.00      890.00
 Bulk Density Moist [g/cc]:        1.35        1.35        0.00
 Ave. AW Incl. Rock Frag  :        0.26        0.23        0.02
 Ksat. (est.)      [mm/hr]:        9.72        9.72       25.92
 Organic Carbon [weight %]:        1.45        0.87        0.00
 Clay           [weight %]:       47.50       45.00        0.00
 Silt           [weight %]:       29.20       28.90        0.00
 Sand           [weight %]:       23.30       26.10        0.00
 Rock Fragments   [vol. %]:       11.00       37.00        0.00
 Soil Albedo (Moist)      :        0.09        0.09        0.09
 Erosion K                :        0.32        0.32        0.00
 Salinity (EC, Form 5)    :        1.00        1.00        0.00
 Soil pH                  :        8.20        8.20        0.00
 Soil CACO3               :        0.00        0.00        0.00
                              
