 .Sol file Watershed HRU:897 Subbasin:38 HRU:17 Luse:WETF Soil: MBRW02 Slope: 0-9999 4/9/2015 12:00:00 AM ArcSWAT 2012.10_2.15
 Soil Name: MBRW02
 Soil Hydrologic Group: B
 Maximum rooting depth(m) : 2030.00
 Porosity fraction from which anions are excluded: 0.500
 Crack volume potential of soil: 0.500
 Texture 1                : SIC-SIC-SICL
 Depth                [mm]:      510.00     1320.00     2030.00
 Bulk Density Moist [g/cc]:        1.30        1.33        1.40
 Ave. AW Incl. Rock Frag  :        0.32        0.28        0.28
 Ksat. (est.)      [mm/hr]:       32.40       32.40       32.40
 Organic Carbon [weight %]:        1.16        0.87        0.44
 Clay           [weight %]:       42.50       42.10       40.00
 Silt           [weight %]:       48.90       49.50       52.90
 Sand           [weight %]:        7.70        7.80        7.10
 Rock Fragments   [vol. %]:        4.00        4.00       13.00
 Soil Albedo (Moist)      :        0.16        0.16        0.16
 Erosion K                :        0.32        0.37        0.37
 Salinity (EC, Form 5)    :        0.00        0.00        0.00
 Soil pH                  :        8.20        8.20        8.20
 Soil CACO3               :        0.00        0.00        0.00
                              
