 .Sol file Watershed HRU:1131 Subbasin:48 HRU:40 Luse:URLD Soil: MBRW04 Slope: 0-9999 4/9/2015 12:00:00 AM ArcSWAT 2012.10_2.15
 Soil Name: MBRW04
 Soil Hydrologic Group: C
 Maximum rooting depth(m) : 1780.00
 Porosity fraction from which anions are excluded: 0.500
 Crack volume potential of soil: 0.500
 Texture 1                : SIC-SIC-SICL-SIL-CB-SIL-BR
 Depth                [mm]:      330.00      480.00      910.00     1070.00     1320.00     1780.00
 Bulk Density Moist [g/cc]:        1.25        1.39        1.53        1.53        1.53        0.00
 Ave. AW Incl. Rock Frag  :        0.26        0.26        0.23        0.23        0.18        0.02
 Ksat. (est.)      [mm/hr]:        3.60        3.60       32.40       32.40       32.40       25.92
 Organic Carbon [weight %]:        1.45        0.87        0.32        0.32        0.32        0.00
 Clay           [weight %]:       46.00       45.00       28.50       23.50       23.50        0.00
 Silt           [weight %]:       48.40       47.80       64.40       67.10       67.10        0.00
 Sand           [weight %]:        5.60        7.20        7.10        9.40        9.40        0.00
 Rock Fragments   [vol. %]:        3.00        3.00       10.00       12.00       42.00        0.00
 Soil Albedo (Moist)      :        0.16        0.16        0.16        0.16        0.16        0.16
 Erosion K                :        0.32        0.32        0.43        0.43        0.43        0.00
 Salinity (EC, Form 5)    :        0.00        0.00        0.00        0.00        0.00        0.00
 Soil pH                  :        8.20        8.20        8.20        8.20        8.20        0.00
 Soil CACO3               :        0.00        0.00        0.00        0.00        0.00        0.00
                              
