 .Sol file Watershed HRU:1215 Subbasin:51 HRU:8 Luse:PAST Soil: MBRW10 Slope: 0-9999 4/9/2015 12:00:00 AM ArcSWAT 2012.10_2.15
 Soil Name: MBRW10
 Soil Hydrologic Group: D
 Maximum rooting depth(m) :  560.00
 Porosity fraction from which anions are excluded: 0.500
 Crack volume potential of soil: 0.500
 Texture 1                : CL-BR
 Depth                [mm]:      460.00      560.00
 Bulk Density Moist [g/cc]:        1.35        0.00
 Ave. AW Incl. Rock Frag  :        0.25        0.02
 Ksat. (est.)      [mm/hr]:        9.72       25.92
 Organic Carbon [weight %]:        1.16        0.00
 Clay           [weight %]:       33.50        0.00
 Silt           [weight %]:       32.30        0.00
 Sand           [weight %]:       34.20        0.00
 Rock Fragments   [vol. %]:       13.00        0.00
 Soil Albedo (Moist)      :        0.16        0.16
 Erosion K                :        0.37        0.00
 Salinity (EC, Form 5)    :        1.00        0.00
 Soil pH                  :        8.20        0.00
 Soil CACO3               :        0.00        0.00
                              
