Watershed atmospheric deposition file      .atm file 4/9/2015 12:00:00 AM ArcSWAT 2012.10_2.15




             0.000     0.000     0.000     0.000
             0.000     0.000     0.000     0.000
             0.000     0.000     0.000     0.000
             0.000     0.000     0.000     0.000
             0.000     0.000     0.000     0.000
             0.000     0.000     0.000     0.000
             0.000     0.000     0.000     0.000
             0.000     0.000     0.000     0.000
             0.000     0.000     0.000     0.000
             0.000     0.000     0.000     0.000
             0.000     0.000     0.000     0.000
             0.000     0.000     0.000     0.000
             0.000     0.000     0.000     0.000
             0.000     0.000     0.000     0.000
             0.000     0.000     0.000     0.000
             0.000     0.000     0.000     0.000
             0.000     0.000     0.000     0.000
             0.000     0.000     0.000     0.000
             0.000     0.000     0.000     0.000
             0.000     0.000     0.000     0.000
             0.000     0.000     0.000     0.000
             0.000     0.000     0.000     0.000
             0.000     0.000     0.000     0.000
             0.000     0.000     0.000     0.000
             0.000     0.000     0.000     0.000
             0.000     0.000     0.000     0.000
             0.000     0.000     0.000     0.000
             0.000     0.000     0.000     0.000
             0.000     0.000     0.000     0.000
             0.000     0.000     0.000     0.000
             0.000     0.000     0.000     0.000
             0.000     0.000     0.000     0.000
             0.000     0.000     0.000     0.000
             0.000     0.000     0.000     0.000
             0.000     0.000     0.000     0.000
             0.000     0.000     0.000     0.000
             0.000     0.000     0.000     0.000
             0.000     0.000     0.000     0.000
             0.000     0.000     0.000     0.000
             0.000     0.000     0.000     0.000
             0.000     0.000     0.000     0.000
             0.000     0.000     0.000     0.000
             0.000     0.000     0.000     0.000
             0.000     0.000     0.000     0.000
             0.000     0.000     0.000     0.000
             0.000     0.000     0.000     0.000
             0.000     0.000     0.000     0.000
             0.000     0.000     0.000     0.000
             0.000     0.000     0.000     0.000
             0.000     0.000     0.000     0.000
             0.000     0.000     0.000     0.000
             0.000     0.000     0.000     0.000
             0.000     0.000     0.000     0.000
             0.000     0.000     0.000     0.000
             0.000     0.000     0.000     0.000
             0.000     0.000     0.000     0.000
             0.000     0.000     0.000     0.000
             0.000     0.000     0.000     0.000
             0.000     0.000     0.000     0.000
             0.000     0.000     0.000     0.000
             0.000     0.000     0.000     0.000
             0.000     0.000     0.000     0.000
             0.000     0.000     0.000     0.000
             0.000     0.000     0.000     0.000
             0.000     0.000     0.000     0.000
             0.000     0.000     0.000     0.000
             0.000     0.000     0.000     0.000
             0.000     0.000     0.000     0.000
             0.000     0.000     0.000     0.000
